inputs/GSO_Base_Network/Rural/Transformers.dss
New Transformer.ctrafo(cramaee():s_ncctt1570->s_ncctt1570_bt) phases=1 windings=3 %loadloss=1.248151 %Noloadloss=0.68 normhkva=11.0 wdg=1 conn=wye bus=s_ncctt1570.3 Kv=7.19956 kva=10.0 EmergHKVA=15.0 %r=0.41605 wdg=2 conn=wye bus=s_ncctt1570_bt.1.0 Kv=0.120089 kva=10.0 EmergHKVA=15.0 %r=0.832101 wdg=3 conn=wye bus=s_ncctt1570_bt.0.2 Kv=0.120089 kva=10.0 EmergHKVA=15.0 %r=0.832101 XHL=1.08 XLT=1.08 XHT=0.72

New Transformer.ctrafo(cramaee():s_ncctt258->s_ncctt258_bt) phases=1 windings=3 %loadloss=0.798816 %Noloadloss=0.472 normhkva=27.5 wdg=1 conn=wye bus=s_ncctt258.1 Kv=7.19956 kva=25.0 EmergHKVA=37.5 %r=0.266272 wdg=2 conn=wye bus=s_ncctt258_bt.1.0 Kv=0.120089 kva=25.0 EmergHKVA=37.5 %r=0.532544 wdg=3 conn=wye bus=s_ncctt258_bt.0.2 Kv=0.120089 kva=25.0 EmergHKVA=37.5 %r=0.532544 XHL=2.4 XLT=2.4 XHT=1.6

New Transformer.ctrafo(cramaee():s_ncctt1087->s_ncctt1087_bt) phases=1 windings=3 %loadloss=0.49926 %Noloadloss=0.38 normhkva=82.5 wdg=1 conn=wye bus=s_ncctt1087.3 Kv=7.19956 kva=75.0 EmergHKVA=112.5 %r=0.16642 wdg=2 conn=wye bus=s_ncctt1087_bt.1.0 Kv=0.120089 kva=75.0 EmergHKVA=112.5 %r=0.33284 wdg=3 conn=wye bus=s_ncctt1087_bt.0.2 Kv=0.120089 kva=75.0 EmergHKVA=112.5 %r=0.33284 XHL=2.4 XLT=2.4 XHT=1.6

New Transformer.creguladortension(cramaee():s_ncctt208->s_nssee0_12.47) phases=3 windings=2 %loadloss=0.0 %Noloadloss=0.0 normhkva=11000.0 wdg=1 conn=wye Kv=12.47 kva=10000.0 EmergHKVA=15000.0 %R=0.0 bus=s_ncctt208->s_nssee0_1247_s wdg=2 conn=wye Kv=12.47 kva=10000.0 EmergHKVA=15000.0 %R=0.0 bus=s_ncctt208 XHL=0.04

New Transformer.ctrafo(cramaee():s_ncctt1597->s_ncctt1597_bt) phases=1 windings=3 %loadloss=1.248151 %Noloadloss=0.68 normhkva=11.0 wdg=1 conn=wye bus=s_ncctt1597.2 Kv=7.19956 kva=10.0 EmergHKVA=15.0 %r=0.41605 wdg=2 conn=wye bus=s_ncctt1597_bt.1.0 Kv=0.120089 kva=10.0 EmergHKVA=15.0 %r=0.832101 wdg=3 conn=wye bus=s_ncctt1597_bt.0.2 Kv=0.120089 kva=10.0 EmergHKVA=15.0 %r=0.832101 XHL=1.08 XLT=1.08 XHT=0.72

New Transformer.ctrafo(cramaee():s_ncctt2035->s_ncctt2035_bt) phases=1 windings=3 %loadloss=1.248151 %Noloadloss=0.68 normhkva=11.0 wdg=1 conn=wye bus=s_ncctt2035.1 Kv=7.19956 kva=10.0 EmergHKVA=15.0 %r=0.41605 wdg=2 conn=wye bus=s_ncctt2035_bt.1.0 Kv=0.120089 kva=10.0 EmergHKVA=15.0 %r=0.832101 wdg=3 conn=wye bus=s_ncctt2035_bt.0.2 Kv=0.120089 kva=10.0 EmergHKVA=15.0 %r=0.832101 XHL=1.08 XLT=1.08 XHT=0.72

New Transformer.ctrafo(cramaee():s_ncctt1977->s_ncctt1977_bt) phases=1 windings=3 %loadloss=1.248151 %Noloadloss=0.68 normhkva=11.0 wdg=1 conn=wye bus=s_ncctt1977.1 Kv=7.19956 kva=10.0 EmergHKVA=15.0 %r=0.41605 wdg=2 conn=wye bus=s_ncctt1977_bt.1.0 Kv=0.120089 kva=10.0 EmergHKVA=15.0 %r=0.832101 wdg=3 conn=wye bus=s_ncctt1977_bt.0.2 Kv=0.120089 kva=10.0 EmergHKVA=15.0 %r=0.832101 XHL=1.08 XLT=1.08 XHT=0.72

New Transformer.ctrafo(cramaee():s_ncctt2271->s_ncctt2271_bt) phases=1 windings=3 %loadloss=1.248151 %Noloadloss=0.68 normhkva=11.0 wdg=1 conn=wye bus=s_ncctt2271.3 Kv=7.19956 kva=10.0 EmergHKVA=15.0 %r=0.41605 wdg=2 conn=wye bus=s_ncctt2271_bt.1.0 Kv=0.120089 kva=10.0 EmergHKVA=15.0 %r=0.832101 wdg=3 conn=wye bus=s_ncctt2271_bt.0.2 Kv=0.120089 kva=10.0 EmergHKVA=15.0 %r=0.832101 XHL=1.08 XLT=1.08 XHT=0.72

New Transformer.ctrafo(cramaee():s_ncctt2169->s_ncctt2169_bt) phases=1 windings=3 %loadloss=1.248151 %Noloadloss=0.68 normhkva=11.0 wdg=1 conn=wye bus=s_ncctt2169.1 Kv=7.19956 kva=10.0 EmergHKVA=15.0 %r=0.41605 wdg=2 conn=wye bus=s_ncctt2169_bt.1.0 Kv=0.120089 kva=10.0 EmergHKVA=15.0 %r=0.832101 wdg=3 conn=wye bus=s_ncctt2169_bt.0.2 Kv=0.120089 kva=10.0 EmergHKVA=15.0 %r=0.832101 XHL=1.08 XLT=1.08 XHT=0.72

New Transformer.ctrafo(cramaee():s_ncctt306->s_ncctt306_bt) phases=1 windings=3 %loadloss=1.248151 %Noloadloss=0.68 normhkva=11.0 wdg=1 conn=wye bus=s_ncctt306.2 Kv=7.19956 kva=10.0 EmergHKVA=15.0 %r=0.41605 wdg=2 conn=wye bus=s_ncctt306_bt.1.0 Kv=0.120089 kva=10.0 EmergHKVA=15.0 %r=0.832101 wdg=3 conn=wye bus=s_ncctt306_bt.0.2 Kv=0.120089 kva=10.0 EmergHKVA=15.0 %r=0.832101 XHL=1.08 XLT=1.08 XHT=0.72

New Transformer.ctrafo(cramaee():s_ncctt698->s_ncctt698_bt) phases=1 windings=3 %loadloss=1.248151 %Noloadloss=0.68 normhkva=11.0 wdg=1 conn=wye bus=s_ncctt698.1 Kv=7.19956 kva=10.0 EmergHKVA=15.0 %r=0.41605 wdg=2 conn=wye bus=s_ncctt698_bt.1.0 Kv=0.120089 kva=10.0 EmergHKVA=15.0 %r=0.832101 wdg=3 conn=wye bus=s_ncctt698_bt.0.2 Kv=0.120089 kva=10.0 EmergHKVA=15.0 %r=0.832101 XHL=1.08 XLT=1.08 XHT=0.72

New Transformer.ctrafo(cramaee():s_ncctt2379->s_ncctt2379_bt) phases=1 windings=3 %loadloss=0.798816 %Noloadloss=0.472 normhkva=27.5 wdg=1 conn=wye bus=s_ncctt2379.2 Kv=7.19956 kva=25.0 EmergHKVA=37.5 %r=0.266272 wdg=2 conn=wye bus=s_ncctt2379_bt.1.0 Kv=0.120089 kva=25.0 EmergHKVA=37.5 %r=0.532544 wdg=3 conn=wye bus=s_ncctt2379_bt.0.2 Kv=0.120089 kva=25.0 EmergHKVA=37.5 %r=0.532544 XHL=2.4 XLT=2.4 XHT=1.6

New Transformer.ctrafo(cramaee():s_ncctt1693->s_ncctt1693_bt) phases=1 windings=3 %loadloss=1.248151 %Noloadloss=0.68 normhkva=11.0 wdg=1 conn=wye bus=s_ncctt1693.1 Kv=7.19956 kva=10.0 EmergHKVA=15.0 %r=0.41605 wdg=2 conn=wye bus=s_ncctt1693_bt.1.0 Kv=0.120089 kva=10.0 EmergHKVA=15.0 %r=0.832101 wdg=3 conn=wye bus=s_ncctt1693_bt.0.2 Kv=0.120089 kva=10.0 EmergHKVA=15.0 %r=0.832101 XHL=1.08 XLT=1.08 XHT=0.72

New Transformer.ctrafo(cramaee():s_ncctt1137->s_ncctt1137_bt) phases=1 windings=3 %loadloss=1.248151 %Noloadloss=0.68 normhkva=11.0 wdg=1 conn=wye bus=s_ncctt1137.1 Kv=7.19956 kva=10.0 EmergHKVA=15.0 %r=0.41605 wdg=2 conn=wye bus=s_ncctt1137_bt.1.0 Kv=0.120089 kva=10.0 EmergHKVA=15.0 %r=0.832101 wdg=3 conn=wye bus=s_ncctt1137_bt.0.2 Kv=0.120089 kva=10.0 EmergHKVA=15.0 %r=0.832101 XHL=1.08 XLT=1.08 XHT=0.72

New Transformer.ctrafo(cramaee():s_ncctt1455->s_ncctt1455_bt) phases=1 windings=3 %loadloss=1.248151 %Noloadloss=0.68 normhkva=11.0 wdg=1 conn=wye bus=s_ncctt1455.3 Kv=7.19956 kva=10.0 EmergHKVA=15.0 %r=0.41605 wdg=2 conn=wye bus=s_ncctt1455_bt.1.0 Kv=0.120089 kva=10.0 EmergHKVA=15.0 %r=0.832101 wdg=3 conn=wye bus=s_ncctt1455_bt.0.2 Kv=0.120089 kva=10.0 EmergHKVA=15.0 %r=0.832101 XHL=1.08 XLT=1.08 XHT=0.72

New Transformer.ctrafo(cramaee():s_ncctt510->s_ncctt510_bt) phases=1 windings=3 %loadloss=1.248151 %Noloadloss=0.68 normhkva=11.0 wdg=1 conn=wye bus=s_ncctt510.3 Kv=7.19956 kva=10.0 EmergHKVA=15.0 %r=0.41605 wdg=2 conn=wye bus=s_ncctt510_bt.1.0 Kv=0.120089 kva=10.0 EmergHKVA=15.0 %r=0.832101 wdg=3 conn=wye bus=s_ncctt510_bt.0.2 Kv=0.120089 kva=10.0 EmergHKVA=15.0 %r=0.832101 XHL=1.08 XLT=1.08 XHT=0.72

New Transformer.ctrafo(cramaee():s_ncctt1462->s_ncctt1462_bt) phases=1 windings=3 %loadloss=0.798816 %Noloadloss=0.472 normhkva=27.5 wdg=1 conn=wye bus=s_ncctt1462.1 Kv=7.19956 kva=25.0 EmergHKVA=37.5 %r=0.266272 wdg=2 conn=wye bus=s_ncctt1462_bt.1.0 Kv=0.120089 kva=25.0 EmergHKVA=37.5 %r=0.532544 wdg=3 conn=wye bus=s_ncctt1462_bt.0.2 Kv=0.120089 kva=25.0 EmergHKVA=37.5 %r=0.532544 XHL=2.4 XLT=2.4 XHT=1.6

New Transformer.ctrafo(cramaee():s_ncctt1035->s_ncctt1035_bt) phases=1 windings=3 %loadloss=1.248151 %Noloadloss=0.68 normhkva=11.0 wdg=1 conn=wye bus=s_ncctt1035.2 Kv=7.19956 kva=10.0 EmergHKVA=15.0 %r=0.41605 wdg=2 conn=wye bus=s_ncctt1035_bt.1.0 Kv=0.120089 kva=10.0 EmergHKVA=15.0 %r=0.832101 wdg=3 conn=wye bus=s_ncctt1035_bt.0.2 Kv=0.120089 kva=10.0 EmergHKVA=15.0 %r=0.832101 XHL=1.08 XLT=1.08 XHT=0.72

New Transformer.ctrafo(cramaee():s_ncctt950->s_ncctt950_bt) phases=1 windings=3 %loadloss=1.248151 %Noloadloss=0.68 normhkva=11.0 wdg=1 conn=wye bus=s_ncctt950.1 Kv=7.19956 kva=10.0 EmergHKVA=15.0 %r=0.41605 wdg=2 conn=wye bus=s_ncctt950_bt.1.0 Kv=0.120089 kva=10.0 EmergHKVA=15.0 %r=0.832101 wdg=3 conn=wye bus=s_ncctt950_bt.0.2 Kv=0.120089 kva=10.0 EmergHKVA=15.0 %r=0.832101 XHL=1.08 XLT=1.08 XHT=0.72

New Transformer.ctrafo(cramaee():s_ncctt2273->s_ncctt2273_bt) phases=1 windings=3 %loadloss=1.248151 %Noloadloss=0.68 normhkva=11.0 wdg=1 conn=wye bus=s_ncctt2273.1 Kv=7.19956 kva=10.0 EmergHKVA=15.0 %r=0.41605 wdg=2 conn=wye bus=s_ncctt2273_bt.1.0 Kv=0.120089 kva=10.0 EmergHKVA=15.0 %r=0.832101 wdg=3 conn=wye bus=s_ncctt2273_bt.0.2 Kv=0.120089 kva=10.0 EmergHKVA=15.0 %r=0.832101 XHL=1.08 XLT=1.08 XHT=0.72

New Transformer.ctrafo(cramaee():s_ncctt2257->s_ncctt2257_bt) phases=1 windings=3 %loadloss=0.49926 %Noloadloss=0.38 normhkva=82.5 wdg=1 conn=wye bus=s_ncctt2257.2 Kv=7.19956 kva=75.0 EmergHKVA=112.5 %r=0.16642 wdg=2 conn=wye bus=s_ncctt2257_bt.1.0 Kv=0.120089 kva=75.0 EmergHKVA=112.5 %r=0.33284 wdg=3 conn=wye bus=s_ncctt2257_bt.0.2 Kv=0.120089 kva=75.0 EmergHKVA=112.5 %r=0.33284 XHL=2.4 XLT=2.4 XHT=1.6

New Transformer.ctrafo(cramaee():s_ncctt63->s_ncctt63_bt) phases=1 windings=3 %loadloss=1.248151 %Noloadloss=0.68 normhkva=11.0 wdg=1 conn=wye bus=s_ncctt63.2 Kv=7.19956 kva=10.0 EmergHKVA=15.0 %r=0.41605 wdg=2 conn=wye bus=s_ncctt63_bt.1.0 Kv=0.120089 kva=10.0 EmergHKVA=15.0 %r=0.832101 wdg=3 conn=wye bus=s_ncctt63_bt.0.2 Kv=0.120089 kva=10.0 EmergHKVA=15.0 %r=0.832101 XHL=1.08 XLT=1.08 XHT=0.72

New Transformer.ctrafo(cramaee():s_ncctt2060->s_ncctt2060_bt) phases=1 windings=3 %loadloss=1.248151 %Noloadloss=0.68 normhkva=11.0 wdg=1 conn=wye bus=s_ncctt2060.1 Kv=7.19956 kva=10.0 EmergHKVA=15.0 %r=0.41605 wdg=2 conn=wye bus=s_ncctt2060_bt.1.0 Kv=0.120089 kva=10.0 EmergHKVA=15.0 %r=0.832101 wdg=3 conn=wye bus=s_ncctt2060_bt.0.2 Kv=0.120089 kva=10.0 EmergHKVA=15.0 %r=0.832101 XHL=1.08 XLT=1.08 XHT=0.72

New Transformer.ctrafo(cramaee():s_ncctt1607->s_ncctt1607_bt) phases=1 windings=3 %loadloss=1.248151 %Noloadloss=0.68 normhkva=11.0 wdg=1 conn=wye bus=s_ncctt1607.1 Kv=7.19956 kva=10.0 EmergHKVA=15.0 %r=0.41605 wdg=2 conn=wye bus=s_ncctt1607_bt.1.0 Kv=0.120089 kva=10.0 EmergHKVA=15.0 %r=0.832101 wdg=3 conn=wye bus=s_ncctt1607_bt.0.2 Kv=0.120089 kva=10.0 EmergHKVA=15.0 %r=0.832101 XHL=1.08 XLT=1.08 XHT=0.72

New Transformer.ctrafo(cramaee():s_ncctt1295->s_ncctt1295_bt) phases=1 windings=3 %loadloss=1.248151 %Noloadloss=0.68 normhkva=11.0 wdg=1 conn=wye bus=s_ncctt1295.2 Kv=7.19956 kva=10.0 EmergHKVA=15.0 %r=0.41605 wdg=2 conn=wye bus=s_ncctt1295_bt.1.0 Kv=0.120089 kva=10.0 EmergHKVA=15.0 %r=0.832101 wdg=3 conn=wye bus=s_ncctt1295_bt.0.2 Kv=0.120089 kva=10.0 EmergHKVA=15.0 %r=0.832101 XHL=1.08 XLT=1.08 XHT=0.72

New Transformer.ctrafo(cramaee():s_ncctt388->s_ncctt388_bt) phases=1 windings=3 %loadloss=0.798816 %Noloadloss=0.37 normhkva=55.0 wdg=1 conn=wye bus=s_ncctt388.1 Kv=7.19956 kva=50.0 EmergHKVA=75.0 %r=0.266272 wdg=2 conn=wye bus=s_ncctt388_bt.1.0 Kv=0.120089 kva=50.0 EmergHKVA=75.0 %r=0.532544 wdg=3 conn=wye bus=s_ncctt388_bt.0.2 Kv=0.120089 kva=50.0 EmergHKVA=75.0 %r=0.532544 XHL=2.4 XLT=2.4 XHT=1.6

New Transformer.ctrafo(cramaee():s_ncctt783->s_ncctt783_bt) phases=1 windings=3 %loadloss=1.248151 %Noloadloss=0.68 normhkva=11.0 wdg=1 conn=wye bus=s_ncctt783.1 Kv=7.19956 kva=10.0 EmergHKVA=15.0 %r=0.41605 wdg=2 conn=wye bus=s_ncctt783_bt.1.0 Kv=0.120089 kva=10.0 EmergHKVA=15.0 %r=0.832101 wdg=3 conn=wye bus=s_ncctt783_bt.0.2 Kv=0.120089 kva=10.0 EmergHKVA=15.0 %r=0.832101 XHL=1.08 XLT=1.08 XHT=0.72

New Transformer.ctrafo(cramaee():s_ncctt1745->s_ncctt1745_bt) phases=1 windings=3 %loadloss=1.248151 %Noloadloss=0.68 normhkva=11.0 wdg=1 conn=wye bus=s_ncctt1745.2 Kv=7.19956 kva=10.0 EmergHKVA=15.0 %r=0.41605 wdg=2 conn=wye bus=s_ncctt1745_bt.1.0 Kv=0.120089 kva=10.0 EmergHKVA=15.0 %r=0.832101 wdg=3 conn=wye bus=s_ncctt1745_bt.0.2 Kv=0.120089 kva=10.0 EmergHKVA=15.0 %r=0.832101 XHL=1.08 XLT=1.08 XHT=0.72

New Transformer.ctrafo(cramaee():s_ncctt2453->s_ncctt2453_bt) phases=1 windings=3 %loadloss=1.248151 %Noloadloss=0.68 normhkva=11.0 wdg=1 conn=wye bus=s_ncctt2453.1 Kv=7.19956 kva=10.0 EmergHKVA=15.0 %r=0.41605 wdg=2 conn=wye bus=s_ncctt2453_bt.1.0 Kv=0.120089 kva=10.0 EmergHKVA=15.0 %r=0.832101 wdg=3 conn=wye bus=s_ncctt2453_bt.0.2 Kv=0.120089 kva=10.0 EmergHKVA=15.0 %r=0.832101 XHL=1.08 XLT=1.08 XHT=0.72

New Transformer.ctrafo(cramaee():s_ncctt903->s_ncctt903_bt) phases=1 windings=3 %loadloss=1.248151 %Noloadloss=0.68 normhkva=11.0 wdg=1 conn=wye bus=s_ncctt903.2 Kv=7.19956 kva=10.0 EmergHKVA=15.0 %r=0.41605 wdg=2 conn=wye bus=s_ncctt903_bt.1.0 Kv=0.120089 kva=10.0 EmergHKVA=15.0 %r=0.832101 wdg=3 conn=wye bus=s_ncctt903_bt.0.2 Kv=0.120089 kva=10.0 EmergHKVA=15.0 %r=0.832101 XHL=1.08 XLT=1.08 XHT=0.72

New Transformer.ctrafo(cramaee():s_ncctt126->s_ncctt126_bt) phases=1 windings=3 %loadloss=1.248151 %Noloadloss=0.68 normhkva=11.0 wdg=1 conn=wye bus=s_ncctt126.1 Kv=7.19956 kva=10.0 EmergHKVA=15.0 %r=0.41605 wdg=2 conn=wye bus=s_ncctt126_bt.1.0 Kv=0.120089 kva=10.0 EmergHKVA=15.0 %r=0.832101 wdg=3 conn=wye bus=s_ncctt126_bt.0.2 Kv=0.120089 kva=10.0 EmergHKVA=15.0 %r=0.832101 XHL=1.08 XLT=1.08 XHT=0.72

New Transformer.ctrafo(cramaee():s_ncctt2428->s_ncctt2428_bt) phases=1 windings=3 %loadloss=0.798816 %Noloadloss=0.472 normhkva=27.5 wdg=1 conn=wye bus=s_ncctt2428.1 Kv=7.19956 kva=25.0 EmergHKVA=37.5 %r=0.266272 wdg=2 conn=wye bus=s_ncctt2428_bt.1.0 Kv=0.120089 kva=25.0 EmergHKVA=37.5 %r=0.532544 wdg=3 conn=wye bus=s_ncctt2428_bt.0.2 Kv=0.120089 kva=25.0 EmergHKVA=37.5 %r=0.532544 XHL=2.4 XLT=2.4 XHT=1.6

New Transformer.ctrafo(cramaee():s_ncctt1718->s_ncctt1718_bt) phases=1 windings=3 %loadloss=1.248151 %Noloadloss=0.68 normhkva=11.0 wdg=1 conn=wye bus=s_ncctt1718.3 Kv=7.19956 kva=10.0 EmergHKVA=15.0 %r=0.41605 wdg=2 conn=wye bus=s_ncctt1718_bt.1.0 Kv=0.120089 kva=10.0 EmergHKVA=15.0 %r=0.832101 wdg=3 conn=wye bus=s_ncctt1718_bt.0.2 Kv=0.120089 kva=10.0 EmergHKVA=15.0 %r=0.832101 XHL=1.08 XLT=1.08 XHT=0.72

New Transformer.ctrafo(cramaee():s_ncctt2394->s_ncctt2394_bt) phases=1 windings=3 %loadloss=0.798816 %Noloadloss=0.472 normhkva=27.5 wdg=1 conn=wye bus=s_ncctt2394.2 Kv=7.19956 kva=25.0 EmergHKVA=37.5 %r=0.266272 wdg=2 conn=wye bus=s_ncctt2394_bt.1.0 Kv=0.120089 kva=25.0 EmergHKVA=37.5 %r=0.532544 wdg=3 conn=wye bus=s_ncctt2394_bt.0.2 Kv=0.120089 kva=25.0 EmergHKVA=37.5 %r=0.532544 XHL=2.4 XLT=2.4 XHT=1.6

New Transformer.ctrafo(cramaee():s_ncctt582->s_ncctt582_bt) phases=1 windings=3 %loadloss=1.248151 %Noloadloss=0.68 normhkva=11.0 wdg=1 conn=wye bus=s_ncctt582.2 Kv=7.19956 kva=10.0 EmergHKVA=15.0 %r=0.41605 wdg=2 conn=wye bus=s_ncctt582_bt.1.0 Kv=0.120089 kva=10.0 EmergHKVA=15.0 %r=0.832101 wdg=3 conn=wye bus=s_ncctt582_bt.0.2 Kv=0.120089 kva=10.0 EmergHKVA=15.0 %r=0.832101 XHL=1.08 XLT=1.08 XHT=0.72

New Transformer.ctrafo(cramaee():s_ncctt1095->s_ncctt1095_bt) phases=1 windings=3 %loadloss=1.248151 %Noloadloss=0.68 normhkva=11.0 wdg=1 conn=wye bus=s_ncctt1095.3 Kv=7.19956 kva=10.0 EmergHKVA=15.0 %r=0.41605 wdg=2 conn=wye bus=s_ncctt1095_bt.1.0 Kv=0.120089 kva=10.0 EmergHKVA=15.0 %r=0.832101 wdg=3 conn=wye bus=s_ncctt1095_bt.0.2 Kv=0.120089 kva=10.0 EmergHKVA=15.0 %r=0.832101 XHL=1.08 XLT=1.08 XHT=0.72

New Transformer.ctrafo(cramaee():s_ncctt120->s_ncctt120_bt) phases=1 windings=3 %loadloss=1.248151 %Noloadloss=0.68 normhkva=11.0 wdg=1 conn=wye bus=s_ncctt120.1 Kv=7.19956 kva=10.0 EmergHKVA=15.0 %r=0.41605 wdg=2 conn=wye bus=s_ncctt120_bt.1.0 Kv=0.120089 kva=10.0 EmergHKVA=15.0 %r=0.832101 wdg=3 conn=wye bus=s_ncctt120_bt.0.2 Kv=0.120089 kva=10.0 EmergHKVA=15.0 %r=0.832101 XHL=1.08 XLT=1.08 XHT=0.72

New Transformer.ctrafo(cramaee():s_ncctt2153->s_ncctt2153_bt) phases=1 windings=3 %loadloss=1.248151 %Noloadloss=0.68 normhkva=11.0 wdg=1 conn=wye bus=s_ncctt2153.1 Kv=7.19956 kva=10.0 EmergHKVA=15.0 %r=0.41605 wdg=2 conn=wye bus=s_ncctt2153_bt.1.0 Kv=0.120089 kva=10.0 EmergHKVA=15.0 %r=0.832101 wdg=3 conn=wye bus=s_ncctt2153_bt.0.2 Kv=0.120089 kva=10.0 EmergHKVA=15.0 %r=0.832101 XHL=1.08 XLT=1.08 XHT=0.72

New Transformer.ctrafo(cramaee():s_ncctt2682->s_ncctt2682_bt) phases=1 windings=3 %loadloss=1.248151 %Noloadloss=0.68 normhkva=11.0 wdg=1 conn=wye bus=s_ncctt2682.2 Kv=7.19956 kva=10.0 EmergHKVA=15.0 %r=0.41605 wdg=2 conn=wye bus=s_ncctt2682_bt.1.0 Kv=0.120089 kva=10.0 EmergHKVA=15.0 %r=0.832101 wdg=3 conn=wye bus=s_ncctt2682_bt.0.2 Kv=0.120089 kva=10.0 EmergHKVA=15.0 %r=0.832101 XHL=1.08 XLT=1.08 XHT=0.72

New Transformer.ctrafo(cramaee():s_ncctt1302->s_ncctt1302_bt) phases=1 windings=3 %loadloss=1.248151 %Noloadloss=0.68 normhkva=11.0 wdg=1 conn=wye bus=s_ncctt1302.3 Kv=7.19956 kva=10.0 EmergHKVA=15.0 %r=0.41605 wdg=2 conn=wye bus=s_ncctt1302_bt.1.0 Kv=0.120089 kva=10.0 EmergHKVA=15.0 %r=0.832101 wdg=3 conn=wye bus=s_ncctt1302_bt.0.2 Kv=0.120089 kva=10.0 EmergHKVA=15.0 %r=0.832101 XHL=1.08 XLT=1.08 XHT=0.72

New Transformer.ctrafo(cramaee():s_ncctt1573->s_ncctt1573_bt) phases=1 windings=3 %loadloss=1.248151 %Noloadloss=0.68 normhkva=11.0 wdg=1 conn=wye bus=s_ncctt1573.3 Kv=7.19956 kva=10.0 EmergHKVA=15.0 %r=0.41605 wdg=2 conn=wye bus=s_ncctt1573_bt.1.0 Kv=0.120089 kva=10.0 EmergHKVA=15.0 %r=0.832101 wdg=3 conn=wye bus=s_ncctt1573_bt.0.2 Kv=0.120089 kva=10.0 EmergHKVA=15.0 %r=0.832101 XHL=1.08 XLT=1.08 XHT=0.72

New Transformer.ctrafo(cramaee():s_ncctt856->s_ncctt856_bt) phases=1 windings=3 %loadloss=0.49926 %Noloadloss=0.38 normhkva=82.5 wdg=1 conn=wye bus=s_ncctt856.2 Kv=7.19956 kva=75.0 EmergHKVA=112.5 %r=0.16642 wdg=2 conn=wye bus=s_ncctt856_bt.1.0 Kv=0.120089 kva=75.0 EmergHKVA=112.5 %r=0.33284 wdg=3 conn=wye bus=s_ncctt856_bt.0.2 Kv=0.120089 kva=75.0 EmergHKVA=112.5 %r=0.33284 XHL=2.4 XLT=2.4 XHT=1.6

New Transformer.ctrafo(cramaee():s_ncctt1494->s_ncctt1494_bt) phases=1 windings=3 %loadloss=1.248151 %Noloadloss=0.68 normhkva=11.0 wdg=1 conn=wye bus=s_ncctt1494.3 Kv=7.19956 kva=10.0 EmergHKVA=15.0 %r=0.41605 wdg=2 conn=wye bus=s_ncctt1494_bt.1.0 Kv=0.120089 kva=10.0 EmergHKVA=15.0 %r=0.832101 wdg=3 conn=wye bus=s_ncctt1494_bt.0.2 Kv=0.120089 kva=10.0 EmergHKVA=15.0 %r=0.832101 XHL=1.08 XLT=1.08 XHT=0.72

New Transformer.ctrafo(cramaee():s_ncctt380->s_ncctt380_bt) phases=1 windings=3 %loadloss=0.49926 %Noloadloss=0.38 normhkva=82.5 wdg=1 conn=wye bus=s_ncctt380.3 Kv=7.19956 kva=75.0 EmergHKVA=112.5 %r=0.16642 wdg=2 conn=wye bus=s_ncctt380_bt.1.0 Kv=0.120089 kva=75.0 EmergHKVA=112.5 %r=0.33284 wdg=3 conn=wye bus=s_ncctt380_bt.0.2 Kv=0.120089 kva=75.0 EmergHKVA=112.5 %r=0.33284 XHL=2.4 XLT=2.4 XHT=1.6

New Transformer.ctrafo(cramaee():s_ncctt2233->s_ncctt2233_bt) phases=1 windings=3 %loadloss=0.798816 %Noloadloss=0.472 normhkva=27.5 wdg=1 conn=wye bus=s_ncctt2233.1 Kv=7.19956 kva=25.0 EmergHKVA=37.5 %r=0.266272 wdg=2 conn=wye bus=s_ncctt2233_bt.1.0 Kv=0.120089 kva=25.0 EmergHKVA=37.5 %r=0.532544 wdg=3 conn=wye bus=s_ncctt2233_bt.0.2 Kv=0.120089 kva=25.0 EmergHKVA=37.5 %r=0.532544 XHL=2.4 XLT=2.4 XHT=1.6

New Transformer.ctrafo(cramaee():s_ncctt1417->s_ncctt1417_bt) phases=1 windings=3 %loadloss=1.248151 %Noloadloss=0.68 normhkva=11.0 wdg=1 conn=wye bus=s_ncctt1417.3 Kv=7.19956 kva=10.0 EmergHKVA=15.0 %r=0.41605 wdg=2 conn=wye bus=s_ncctt1417_bt.1.0 Kv=0.120089 kva=10.0 EmergHKVA=15.0 %r=0.832101 wdg=3 conn=wye bus=s_ncctt1417_bt.0.2 Kv=0.120089 kva=10.0 EmergHKVA=15.0 %r=0.832101 XHL=1.08 XLT=1.08 XHT=0.72

New Transformer.ctrafo(cramaee():s_ncctt2416->s_ncctt2416_bt) phases=1 windings=3 %loadloss=0.49926 %Noloadloss=0.38 normhkva=82.5 wdg=1 conn=wye bus=s_ncctt2416.3 Kv=7.19956 kva=75.0 EmergHKVA=112.5 %r=0.16642 wdg=2 conn=wye bus=s_ncctt2416_bt.1.0 Kv=0.120089 kva=75.0 EmergHKVA=112.5 %r=0.33284 wdg=3 conn=wye bus=s_ncctt2416_bt.0.2 Kv=0.120089 kva=75.0 EmergHKVA=112.5 %r=0.33284 XHL=2.4 XLT=2.4 XHT=1.6

New Transformer.ctrafo(cramaee():s_ncctt1159->s_ncctt1159_bt) phases=1 windings=3 %loadloss=1.248151 %Noloadloss=0.68 normhkva=11.0 wdg=1 conn=wye bus=s_ncctt1159.3 Kv=7.19956 kva=10.0 EmergHKVA=15.0 %r=0.41605 wdg=2 conn=wye bus=s_ncctt1159_bt.1.0 Kv=0.120089 kva=10.0 EmergHKVA=15.0 %r=0.832101 wdg=3 conn=wye bus=s_ncctt1159_bt.0.2 Kv=0.120089 kva=10.0 EmergHKVA=15.0 %r=0.832101 XHL=1.08 XLT=1.08 XHT=0.72

New Transformer.ctrafo(cramaee():s_ncctt1089->s_ncctt1089_bt) phases=1 windings=3 %loadloss=1.248151 %Noloadloss=0.68 normhkva=11.0 wdg=1 conn=wye bus=s_ncctt1089.3 Kv=7.19956 kva=10.0 EmergHKVA=15.0 %r=0.41605 wdg=2 conn=wye bus=s_ncctt1089_bt.1.0 Kv=0.120089 kva=10.0 EmergHKVA=15.0 %r=0.832101 wdg=3 conn=wye bus=s_ncctt1089_bt.0.2 Kv=0.120089 kva=10.0 EmergHKVA=15.0 %r=0.832101 XHL=1.08 XLT=1.08 XHT=0.72

New Transformer.ctrafo(cramaee():s_ncctt13->s_ncctt13_bt) phases=1 windings=3 %loadloss=0.798816 %Noloadloss=0.472 normhkva=27.5 wdg=1 conn=wye bus=s_ncctt13.2 Kv=7.19956 kva=25.0 EmergHKVA=37.5 %r=0.266272 wdg=2 conn=wye bus=s_ncctt13_bt.1.0 Kv=0.120089 kva=25.0 EmergHKVA=37.5 %r=0.532544 wdg=3 conn=wye bus=s_ncctt13_bt.0.2 Kv=0.120089 kva=25.0 EmergHKVA=37.5 %r=0.532544 XHL=2.4 XLT=2.4 XHT=1.6

New Transformer.ctrafo(cramaee():s_ncctt2643->s_ncctt2643_bt) phases=1 windings=3 %loadloss=1.248151 %Noloadloss=0.68 normhkva=11.0 wdg=1 conn=wye bus=s_ncctt2643.3 Kv=7.19956 kva=10.0 EmergHKVA=15.0 %r=0.41605 wdg=2 conn=wye bus=s_ncctt2643_bt.1.0 Kv=0.120089 kva=10.0 EmergHKVA=15.0 %r=0.832101 wdg=3 conn=wye bus=s_ncctt2643_bt.0.2 Kv=0.120089 kva=10.0 EmergHKVA=15.0 %r=0.832101 XHL=1.08 XLT=1.08 XHT=0.72

New Transformer.ctrafo(cramaee():s_ncctt947->s_ncctt947_bt) phases=1 windings=3 %loadloss=1.248151 %Noloadloss=0.68 normhkva=11.0 wdg=1 conn=wye bus=s_ncctt947.2 Kv=7.19956 kva=10.0 EmergHKVA=15.0 %r=0.41605 wdg=2 conn=wye bus=s_ncctt947_bt.1.0 Kv=0.120089 kva=10.0 EmergHKVA=15.0 %r=0.832101 wdg=3 conn=wye bus=s_ncctt947_bt.0.2 Kv=0.120089 kva=10.0 EmergHKVA=15.0 %r=0.832101 XHL=1.08 XLT=1.08 XHT=0.72

New Transformer.ctrafo(cramaee():s_ncctt1668->s_ncctt1668_bt) phases=1 windings=3 %loadloss=1.248151 %Noloadloss=0.68 normhkva=11.0 wdg=1 conn=wye bus=s_ncctt1668.1 Kv=7.19956 kva=10.0 EmergHKVA=15.0 %r=0.41605 wdg=2 conn=wye bus=s_ncctt1668_bt.1.0 Kv=0.120089 kva=10.0 EmergHKVA=15.0 %r=0.832101 wdg=3 conn=wye bus=s_ncctt1668_bt.0.2 Kv=0.120089 kva=10.0 EmergHKVA=15.0 %r=0.832101 XHL=1.08 XLT=1.08 XHT=0.72

New Transformer.creguladortension(cramaee():s_ncctt306->s_ncctt307) phases=3 windings=2 %loadloss=0.0 %Noloadloss=0.0 normhkva=11000.0 wdg=1 conn=wye Kv=12.47 kva=10000.0 EmergHKVA=15000.0 %R=0.0 bus=s_ncctt306->s_ncctt307_s wdg=2 conn=wye Kv=12.47 kva=10000.0 EmergHKVA=15000.0 %R=0.0 bus=s_ncctt307 XHL=0.04

New Transformer.ctrafo(cramaee():s_ncctt1420->s_ncctt1420_bt) phases=1 windings=3 %loadloss=1.248151 %Noloadloss=0.68 normhkva=11.0 wdg=1 conn=wye bus=s_ncctt1420.2 Kv=7.19956 kva=10.0 EmergHKVA=15.0 %r=0.41605 wdg=2 conn=wye bus=s_ncctt1420_bt.1.0 Kv=0.120089 kva=10.0 EmergHKVA=15.0 %r=0.832101 wdg=3 conn=wye bus=s_ncctt1420_bt.0.2 Kv=0.120089 kva=10.0 EmergHKVA=15.0 %r=0.832101 XHL=1.08 XLT=1.08 XHT=0.72

New Transformer.ctrafo(cramaee():s_ncctt1427->s_ncctt1427_bt) phases=1 windings=3 %loadloss=0.49926 %Noloadloss=0.38 normhkva=82.5 wdg=1 conn=wye bus=s_ncctt1427.3 Kv=7.19956 kva=75.0 EmergHKVA=112.5 %r=0.16642 wdg=2 conn=wye bus=s_ncctt1427_bt.1.0 Kv=0.120089 kva=75.0 EmergHKVA=112.5 %r=0.33284 wdg=3 conn=wye bus=s_ncctt1427_bt.0.2 Kv=0.120089 kva=75.0 EmergHKVA=112.5 %r=0.33284 XHL=2.4 XLT=2.4 XHT=1.6

New Transformer.ctrafo(cramaee():s_ncctt1048->s_ncctt1048_bt) phases=1 windings=3 %loadloss=1.248151 %Noloadloss=0.68 normhkva=11.0 wdg=1 conn=wye bus=s_ncctt1048.1 Kv=7.19956 kva=10.0 EmergHKVA=15.0 %r=0.41605 wdg=2 conn=wye bus=s_ncctt1048_bt.1.0 Kv=0.120089 kva=10.0 EmergHKVA=15.0 %r=0.832101 wdg=3 conn=wye bus=s_ncctt1048_bt.0.2 Kv=0.120089 kva=10.0 EmergHKVA=15.0 %r=0.832101 XHL=1.08 XLT=1.08 XHT=0.72

New Transformer.ctrafo(cramaee():s_ncctt713->s_ncctt713_bt) phases=1 windings=3 %loadloss=1.248151 %Noloadloss=0.68 normhkva=11.0 wdg=1 conn=wye bus=s_ncctt713.3 Kv=7.19956 kva=10.0 EmergHKVA=15.0 %r=0.41605 wdg=2 conn=wye bus=s_ncctt713_bt.1.0 Kv=0.120089 kva=10.0 EmergHKVA=15.0 %r=0.832101 wdg=3 conn=wye bus=s_ncctt713_bt.0.2 Kv=0.120089 kva=10.0 EmergHKVA=15.0 %r=0.832101 XHL=1.08 XLT=1.08 XHT=0.72

New Transformer.ctrafo(cramaee():s_ncctt2429->s_ncctt2429_bt) phases=1 windings=3 %loadloss=0.49926 %Noloadloss=0.38 normhkva=82.5 wdg=1 conn=wye bus=s_ncctt2429.1 Kv=7.19956 kva=75.0 EmergHKVA=112.5 %r=0.16642 wdg=2 conn=wye bus=s_ncctt2429_bt.1.0 Kv=0.120089 kva=75.0 EmergHKVA=112.5 %r=0.33284 wdg=3 conn=wye bus=s_ncctt2429_bt.0.2 Kv=0.120089 kva=75.0 EmergHKVA=112.5 %r=0.33284 XHL=2.4 XLT=2.4 XHT=1.6

New Transformer.ctrafo(cramaee():s_ncctt313->s_ncctt313_bt) phases=1 windings=3 %loadloss=1.248151 %Noloadloss=0.68 normhkva=11.0 wdg=1 conn=wye bus=s_ncctt313.2 Kv=7.19956 kva=10.0 EmergHKVA=15.0 %r=0.41605 wdg=2 conn=wye bus=s_ncctt313_bt.1.0 Kv=0.120089 kva=10.0 EmergHKVA=15.0 %r=0.832101 wdg=3 conn=wye bus=s_ncctt313_bt.0.2 Kv=0.120089 kva=10.0 EmergHKVA=15.0 %r=0.832101 XHL=1.08 XLT=1.08 XHT=0.72

New Transformer.ctrafo(cramaee():s_ncctt1181->s_ncctt1181_bt) phases=1 windings=3 %loadloss=1.248151 %Noloadloss=0.68 normhkva=11.0 wdg=1 conn=wye bus=s_ncctt1181.2 Kv=7.19956 kva=10.0 EmergHKVA=15.0 %r=0.41605 wdg=2 conn=wye bus=s_ncctt1181_bt.1.0 Kv=0.120089 kva=10.0 EmergHKVA=15.0 %r=0.832101 wdg=3 conn=wye bus=s_ncctt1181_bt.0.2 Kv=0.120089 kva=10.0 EmergHKVA=15.0 %r=0.832101 XHL=1.08 XLT=1.08 XHT=0.72

New Transformer.ctrafo(cramaee():s_ncctt228->s_ncctt228_bt) phases=1 windings=3 %loadloss=1.248151 %Noloadloss=0.68 normhkva=11.0 wdg=1 conn=wye bus=s_ncctt228.2 Kv=7.19956 kva=10.0 EmergHKVA=15.0 %r=0.41605 wdg=2 conn=wye bus=s_ncctt228_bt.1.0 Kv=0.120089 kva=10.0 EmergHKVA=15.0 %r=0.832101 wdg=3 conn=wye bus=s_ncctt228_bt.0.2 Kv=0.120089 kva=10.0 EmergHKVA=15.0 %r=0.832101 XHL=1.08 XLT=1.08 XHT=0.72

New Transformer.ctrafo(cramaee():s_ncctt1479->s_ncctt1479_bt) phases=1 windings=3 %loadloss=1.248151 %Noloadloss=0.68 normhkva=11.0 wdg=1 conn=wye bus=s_ncctt1479.2 Kv=7.19956 kva=10.0 EmergHKVA=15.0 %r=0.41605 wdg=2 conn=wye bus=s_ncctt1479_bt.1.0 Kv=0.120089 kva=10.0 EmergHKVA=15.0 %r=0.832101 wdg=3 conn=wye bus=s_ncctt1479_bt.0.2 Kv=0.120089 kva=10.0 EmergHKVA=15.0 %r=0.832101 XHL=1.08 XLT=1.08 XHT=0.72

New Transformer.ctrafo(cramaee():s_ncctt496->s_ncctt496_bt) phases=1 windings=3 %loadloss=0.49926 %Noloadloss=0.38 normhkva=82.5 wdg=1 conn=wye bus=s_ncctt496.2 Kv=7.19956 kva=75.0 EmergHKVA=112.5 %r=0.16642 wdg=2 conn=wye bus=s_ncctt496_bt.1.0 Kv=0.120089 kva=75.0 EmergHKVA=112.5 %r=0.33284 wdg=3 conn=wye bus=s_ncctt496_bt.0.2 Kv=0.120089 kva=75.0 EmergHKVA=112.5 %r=0.33284 XHL=2.4 XLT=2.4 XHT=1.6

New Transformer.ctrafo(cramaee():s_ncctt1306->s_ncctt1306_bt) phases=1 windings=3 %loadloss=1.248151 %Noloadloss=0.68 normhkva=11.0 wdg=1 conn=wye bus=s_ncctt1306.2 Kv=7.19956 kva=10.0 EmergHKVA=15.0 %r=0.41605 wdg=2 conn=wye bus=s_ncctt1306_bt.1.0 Kv=0.120089 kva=10.0 EmergHKVA=15.0 %r=0.832101 wdg=3 conn=wye bus=s_ncctt1306_bt.0.2 Kv=0.120089 kva=10.0 EmergHKVA=15.0 %r=0.832101 XHL=1.08 XLT=1.08 XHT=0.72

New Transformer.ctrafo(cramaee():s_ncctt1082->s_ncctt1082_bt) phases=1 windings=3 %loadloss=1.248151 %Noloadloss=0.68 normhkva=11.0 wdg=1 conn=wye bus=s_ncctt1082.3 Kv=7.19956 kva=10.0 EmergHKVA=15.0 %r=0.41605 wdg=2 conn=wye bus=s_ncctt1082_bt.1.0 Kv=0.120089 kva=10.0 EmergHKVA=15.0 %r=0.832101 wdg=3 conn=wye bus=s_ncctt1082_bt.0.2 Kv=0.120089 kva=10.0 EmergHKVA=15.0 %r=0.832101 XHL=1.08 XLT=1.08 XHT=0.72

New Transformer.ctrafo(cramaee():s_ncctt2538->s_ncctt2538_bt) phases=1 windings=3 %loadloss=1.248151 %Noloadloss=0.68 normhkva=11.0 wdg=1 conn=wye bus=s_ncctt2538.2 Kv=7.19956 kva=10.0 EmergHKVA=15.0 %r=0.41605 wdg=2 conn=wye bus=s_ncctt2538_bt.1.0 Kv=0.120089 kva=10.0 EmergHKVA=15.0 %r=0.832101 wdg=3 conn=wye bus=s_ncctt2538_bt.0.2 Kv=0.120089 kva=10.0 EmergHKVA=15.0 %r=0.832101 XHL=1.08 XLT=1.08 XHT=0.72

New Transformer.ctrafo(cramaee():s_ncctt600->s_ncctt600_bt) phases=1 windings=3 %loadloss=1.248151 %Noloadloss=0.68 normhkva=11.0 wdg=1 conn=wye bus=s_ncctt600.3 Kv=7.19956 kva=10.0 EmergHKVA=15.0 %r=0.41605 wdg=2 conn=wye bus=s_ncctt600_bt.1.0 Kv=0.120089 kva=10.0 EmergHKVA=15.0 %r=0.832101 wdg=3 conn=wye bus=s_ncctt600_bt.0.2 Kv=0.120089 kva=10.0 EmergHKVA=15.0 %r=0.832101 XHL=1.08 XLT=1.08 XHT=0.72

New Transformer.ctrafo(cramaee():s_ncctt2285->s_ncctt2285_bt) phases=1 windings=3 %loadloss=1.248151 %Noloadloss=0.68 normhkva=11.0 wdg=1 conn=wye bus=s_ncctt2285.3 Kv=7.19956 kva=10.0 EmergHKVA=15.0 %r=0.41605 wdg=2 conn=wye bus=s_ncctt2285_bt.1.0 Kv=0.120089 kva=10.0 EmergHKVA=15.0 %r=0.832101 wdg=3 conn=wye bus=s_ncctt2285_bt.0.2 Kv=0.120089 kva=10.0 EmergHKVA=15.0 %r=0.832101 XHL=1.08 XLT=1.08 XHT=0.72

New Transformer.ctrafo(cramaee():s_ncctt2110->s_ncctt2110_bt) phases=1 windings=3 %loadloss=1.248151 %Noloadloss=0.68 normhkva=11.0 wdg=1 conn=wye bus=s_ncctt2110.3 Kv=7.19956 kva=10.0 EmergHKVA=15.0 %r=0.41605 wdg=2 conn=wye bus=s_ncctt2110_bt.1.0 Kv=0.120089 kva=10.0 EmergHKVA=15.0 %r=0.832101 wdg=3 conn=wye bus=s_ncctt2110_bt.0.2 Kv=0.120089 kva=10.0 EmergHKVA=15.0 %r=0.832101 XHL=1.08 XLT=1.08 XHT=0.72

New Transformer.ctrafo(cramaee():s_ncctt2631->s_ncctt2631_bt) phases=1 windings=3 %loadloss=1.248151 %Noloadloss=0.68 normhkva=11.0 wdg=1 conn=wye bus=s_ncctt2631.2 Kv=7.19956 kva=10.0 EmergHKVA=15.0 %r=0.41605 wdg=2 conn=wye bus=s_ncctt2631_bt.1.0 Kv=0.120089 kva=10.0 EmergHKVA=15.0 %r=0.832101 wdg=3 conn=wye bus=s_ncctt2631_bt.0.2 Kv=0.120089 kva=10.0 EmergHKVA=15.0 %r=0.832101 XHL=1.08 XLT=1.08 XHT=0.72

New Transformer.ctrafo(cramaee():s_ncctt764->s_ncctt764_bt) phases=1 windings=3 %loadloss=1.248151 %Noloadloss=0.68 normhkva=11.0 wdg=1 conn=wye bus=s_ncctt764.1 Kv=7.19956 kva=10.0 EmergHKVA=15.0 %r=0.41605 wdg=2 conn=wye bus=s_ncctt764_bt.1.0 Kv=0.120089 kva=10.0 EmergHKVA=15.0 %r=0.832101 wdg=3 conn=wye bus=s_ncctt764_bt.0.2 Kv=0.120089 kva=10.0 EmergHKVA=15.0 %r=0.832101 XHL=1.08 XLT=1.08 XHT=0.72

New Transformer.ctrafo(cramaee():s_ncctt302->s_ncctt302_bt) phases=1 windings=3 %loadloss=1.248151 %Noloadloss=0.68 normhkva=11.0 wdg=1 conn=wye bus=s_ncctt302.2 Kv=7.19956 kva=10.0 EmergHKVA=15.0 %r=0.41605 wdg=2 conn=wye bus=s_ncctt302_bt.1.0 Kv=0.120089 kva=10.0 EmergHKVA=15.0 %r=0.832101 wdg=3 conn=wye bus=s_ncctt302_bt.0.2 Kv=0.120089 kva=10.0 EmergHKVA=15.0 %r=0.832101 XHL=1.08 XLT=1.08 XHT=0.72

New Transformer.ctrafo(cramaee():s_ncctt2442->s_ncctt2442_bt) phases=1 windings=3 %loadloss=1.248151 %Noloadloss=0.68 normhkva=11.0 wdg=1 conn=wye bus=s_ncctt2442.2 Kv=7.19956 kva=10.0 EmergHKVA=15.0 %r=0.41605 wdg=2 conn=wye bus=s_ncctt2442_bt.1.0 Kv=0.120089 kva=10.0 EmergHKVA=15.0 %r=0.832101 wdg=3 conn=wye bus=s_ncctt2442_bt.0.2 Kv=0.120089 kva=10.0 EmergHKVA=15.0 %r=0.832101 XHL=1.08 XLT=1.08 XHT=0.72

New Transformer.ctrafo(cramaee():s_ncctt552->s_ncctt552_bt) phases=1 windings=3 %loadloss=1.248151 %Noloadloss=0.68 normhkva=11.0 wdg=1 conn=wye bus=s_ncctt552.2 Kv=7.19956 kva=10.0 EmergHKVA=15.0 %r=0.41605 wdg=2 conn=wye bus=s_ncctt552_bt.1.0 Kv=0.120089 kva=10.0 EmergHKVA=15.0 %r=0.832101 wdg=3 conn=wye bus=s_ncctt552_bt.0.2 Kv=0.120089 kva=10.0 EmergHKVA=15.0 %r=0.832101 XHL=1.08 XLT=1.08 XHT=0.72

New Transformer.ctrafo(cramaee():s_ncctt269->s_ncctt269_bt) phases=1 windings=3 %loadloss=1.248151 %Noloadloss=0.68 normhkva=11.0 wdg=1 conn=wye bus=s_ncctt269.1 Kv=7.19956 kva=10.0 EmergHKVA=15.0 %r=0.41605 wdg=2 conn=wye bus=s_ncctt269_bt.1.0 Kv=0.120089 kva=10.0 EmergHKVA=15.0 %r=0.832101 wdg=3 conn=wye bus=s_ncctt269_bt.0.2 Kv=0.120089 kva=10.0 EmergHKVA=15.0 %r=0.832101 XHL=1.08 XLT=1.08 XHT=0.72

New Transformer.ctrafo(cramaee():s_ncctt1138->s_ncctt1138_bt) phases=1 windings=3 %loadloss=1.248151 %Noloadloss=0.68 normhkva=11.0 wdg=1 conn=wye bus=s_ncctt1138.1 Kv=7.19956 kva=10.0 EmergHKVA=15.0 %r=0.41605 wdg=2 conn=wye bus=s_ncctt1138_bt.1.0 Kv=0.120089 kva=10.0 EmergHKVA=15.0 %r=0.832101 wdg=3 conn=wye bus=s_ncctt1138_bt.0.2 Kv=0.120089 kva=10.0 EmergHKVA=15.0 %r=0.832101 XHL=1.08 XLT=1.08 XHT=0.72

New Transformer.ctrafo(cramaee():s_ncctt1791->s_ncctt1791_bt) phases=1 windings=3 %loadloss=0.49926 %Noloadloss=0.38 normhkva=82.5 wdg=1 conn=wye bus=s_ncctt1791.2 Kv=7.19956 kva=75.0 EmergHKVA=112.5 %r=0.16642 wdg=2 conn=wye bus=s_ncctt1791_bt.1.0 Kv=0.120089 kva=75.0 EmergHKVA=112.5 %r=0.33284 wdg=3 conn=wye bus=s_ncctt1791_bt.0.2 Kv=0.120089 kva=75.0 EmergHKVA=112.5 %r=0.33284 XHL=2.4 XLT=2.4 XHT=1.6

New Transformer.creguladortension(cramaee():s_ncctt1947->s_ncctt1948) phases=3 windings=2 %loadloss=0.0 %Noloadloss=0.0 normhkva=11000.0 wdg=1 conn=wye Kv=12.47 kva=10000.0 EmergHKVA=15000.0 %R=0.0 bus=s_ncctt1947->s_ncctt1948_s wdg=2 conn=wye Kv=12.47 kva=10000.0 EmergHKVA=15000.0 %R=0.0 bus=s_ncctt1947 XHL=0.04

New Transformer.ctrafo(cramaee():s_ncctt1727->s_ncctt1727_bt) phases=1 windings=3 %loadloss=1.248151 %Noloadloss=0.68 normhkva=11.0 wdg=1 conn=wye bus=s_ncctt1727.3 Kv=7.19956 kva=10.0 EmergHKVA=15.0 %r=0.41605 wdg=2 conn=wye bus=s_ncctt1727_bt.1.0 Kv=0.120089 kva=10.0 EmergHKVA=15.0 %r=0.832101 wdg=3 conn=wye bus=s_ncctt1727_bt.0.2 Kv=0.120089 kva=10.0 EmergHKVA=15.0 %r=0.832101 XHL=1.08 XLT=1.08 XHT=0.72

New Transformer.ctrafo(cramaee():s_ncctt1556->s_ncctt1556_bt) phases=1 windings=3 %loadloss=0.798816 %Noloadloss=0.472 normhkva=27.5 wdg=1 conn=wye bus=s_ncctt1556.2 Kv=7.19956 kva=25.0 EmergHKVA=37.5 %r=0.266272 wdg=2 conn=wye bus=s_ncctt1556_bt.1.0 Kv=0.120089 kva=25.0 EmergHKVA=37.5 %r=0.532544 wdg=3 conn=wye bus=s_ncctt1556_bt.0.2 Kv=0.120089 kva=25.0 EmergHKVA=37.5 %r=0.532544 XHL=2.4 XLT=2.4 XHT=1.6

New Transformer.ctrafo(cramaee():s_ncctt778->s_ncctt778_bt) phases=1 windings=3 %loadloss=0.798816 %Noloadloss=0.472 normhkva=27.5 wdg=1 conn=wye bus=s_ncctt778.2 Kv=7.19956 kva=25.0 EmergHKVA=37.5 %r=0.266272 wdg=2 conn=wye bus=s_ncctt778_bt.1.0 Kv=0.120089 kva=25.0 EmergHKVA=37.5 %r=0.532544 wdg=3 conn=wye bus=s_ncctt778_bt.0.2 Kv=0.120089 kva=25.0 EmergHKVA=37.5 %r=0.532544 XHL=2.4 XLT=2.4 XHT=1.6

New Transformer.ctrafo(cramaee():s_ncctt1827->s_ncctt1827_bt) phases=1 windings=3 %loadloss=0.798816 %Noloadloss=0.472 normhkva=27.5 wdg=1 conn=wye bus=s_ncctt1827.1 Kv=7.19956 kva=25.0 EmergHKVA=37.5 %r=0.266272 wdg=2 conn=wye bus=s_ncctt1827_bt.1.0 Kv=0.120089 kva=25.0 EmergHKVA=37.5 %r=0.532544 wdg=3 conn=wye bus=s_ncctt1827_bt.0.2 Kv=0.120089 kva=25.0 EmergHKVA=37.5 %r=0.532544 XHL=2.4 XLT=2.4 XHT=1.6

New Transformer.ctrafo(cramaee():s_ncctt574->s_ncctt574_bt) phases=1 windings=3 %loadloss=1.248151 %Noloadloss=0.68 normhkva=11.0 wdg=1 conn=wye bus=s_ncctt574.1 Kv=7.19956 kva=10.0 EmergHKVA=15.0 %r=0.41605 wdg=2 conn=wye bus=s_ncctt574_bt.1.0 Kv=0.120089 kva=10.0 EmergHKVA=15.0 %r=0.832101 wdg=3 conn=wye bus=s_ncctt574_bt.0.2 Kv=0.120089 kva=10.0 EmergHKVA=15.0 %r=0.832101 XHL=1.08 XLT=1.08 XHT=0.72

New Transformer.ctrafo(cramaee():s_ncctt214->s_ncctt214_bt) phases=1 windings=3 %loadloss=1.248151 %Noloadloss=0.68 normhkva=11.0 wdg=1 conn=wye bus=s_ncctt214.3 Kv=7.19956 kva=10.0 EmergHKVA=15.0 %r=0.41605 wdg=2 conn=wye bus=s_ncctt214_bt.1.0 Kv=0.120089 kva=10.0 EmergHKVA=15.0 %r=0.832101 wdg=3 conn=wye bus=s_ncctt214_bt.0.2 Kv=0.120089 kva=10.0 EmergHKVA=15.0 %r=0.832101 XHL=1.08 XLT=1.08 XHT=0.72

New Transformer.ctrafo(cramaee():s_ncctt1737->s_ncctt1737_bt) phases=1 windings=3 %loadloss=0.49926 %Noloadloss=0.38 normhkva=82.5 wdg=1 conn=wye bus=s_ncctt1737.3 Kv=7.19956 kva=75.0 EmergHKVA=112.5 %r=0.16642 wdg=2 conn=wye bus=s_ncctt1737_bt.1.0 Kv=0.120089 kva=75.0 EmergHKVA=112.5 %r=0.33284 wdg=3 conn=wye bus=s_ncctt1737_bt.0.2 Kv=0.120089 kva=75.0 EmergHKVA=112.5 %r=0.33284 XHL=2.4 XLT=2.4 XHT=1.6

New Transformer.ctrafo(cramaee():s_ncctt96->s_ncctt96_bt) phases=1 windings=3 %loadloss=0.49926 %Noloadloss=0.38 normhkva=82.5 wdg=1 conn=wye bus=s_ncctt96.1 Kv=7.19956 kva=75.0 EmergHKVA=112.5 %r=0.16642 wdg=2 conn=wye bus=s_ncctt96_bt.1.0 Kv=0.120089 kva=75.0 EmergHKVA=112.5 %r=0.33284 wdg=3 conn=wye bus=s_ncctt96_bt.0.2 Kv=0.120089 kva=75.0 EmergHKVA=112.5 %r=0.33284 XHL=2.4 XLT=2.4 XHT=1.6

New Transformer.ctrafo(cramaee():s_ncctt1151->s_ncctt1151_bt) phases=1 windings=3 %loadloss=1.248151 %Noloadloss=0.68 normhkva=11.0 wdg=1 conn=wye bus=s_ncctt1151.3 Kv=7.19956 kva=10.0 EmergHKVA=15.0 %r=0.41605 wdg=2 conn=wye bus=s_ncctt1151_bt.1.0 Kv=0.120089 kva=10.0 EmergHKVA=15.0 %r=0.832101 wdg=3 conn=wye bus=s_ncctt1151_bt.0.2 Kv=0.120089 kva=10.0 EmergHKVA=15.0 %r=0.832101 XHL=1.08 XLT=1.08 XHT=0.72

New Transformer.ctrafo(cramaee():s_ncctt1924->s_ncctt1924_bt) phases=1 windings=3 %loadloss=1.248151 %Noloadloss=0.68 normhkva=11.0 wdg=1 conn=wye bus=s_ncctt1924.2 Kv=7.19956 kva=10.0 EmergHKVA=15.0 %r=0.41605 wdg=2 conn=wye bus=s_ncctt1924_bt.1.0 Kv=0.120089 kva=10.0 EmergHKVA=15.0 %r=0.832101 wdg=3 conn=wye bus=s_ncctt1924_bt.0.2 Kv=0.120089 kva=10.0 EmergHKVA=15.0 %r=0.832101 XHL=1.08 XLT=1.08 XHT=0.72

New Transformer.ctrafo(cramaee():s_ncctt2339->s_ncctt2339_bt) phases=1 windings=3 %loadloss=1.248151 %Noloadloss=0.68 normhkva=11.0 wdg=1 conn=wye bus=s_ncctt2339.2 Kv=7.19956 kva=10.0 EmergHKVA=15.0 %r=0.41605 wdg=2 conn=wye bus=s_ncctt2339_bt.1.0 Kv=0.120089 kva=10.0 EmergHKVA=15.0 %r=0.832101 wdg=3 conn=wye bus=s_ncctt2339_bt.0.2 Kv=0.120089 kva=10.0 EmergHKVA=15.0 %r=0.832101 XHL=1.08 XLT=1.08 XHT=0.72

New Transformer.ctrafo(cramaee():s_ncctt1351->s_ncctt1351_bt) phases=1 windings=3 %loadloss=1.248151 %Noloadloss=0.68 normhkva=11.0 wdg=1 conn=wye bus=s_ncctt1351.3 Kv=7.19956 kva=10.0 EmergHKVA=15.0 %r=0.41605 wdg=2 conn=wye bus=s_ncctt1351_bt.1.0 Kv=0.120089 kva=10.0 EmergHKVA=15.0 %r=0.832101 wdg=3 conn=wye bus=s_ncctt1351_bt.0.2 Kv=0.120089 kva=10.0 EmergHKVA=15.0 %r=0.832101 XHL=1.08 XLT=1.08 XHT=0.72

New Transformer.ctrafo(cramaee():s_ncctt1251->s_ncctt1251_bt) phases=1 windings=3 %loadloss=0.798816 %Noloadloss=0.472 normhkva=27.5 wdg=1 conn=wye bus=s_ncctt1251.2 Kv=7.19956 kva=25.0 EmergHKVA=37.5 %r=0.266272 wdg=2 conn=wye bus=s_ncctt1251_bt.1.0 Kv=0.120089 kva=25.0 EmergHKVA=37.5 %r=0.532544 wdg=3 conn=wye bus=s_ncctt1251_bt.0.2 Kv=0.120089 kva=25.0 EmergHKVA=37.5 %r=0.532544 XHL=2.4 XLT=2.4 XHT=1.6

New Transformer.ctrafo(cramaee():s_ncctt962->s_ncctt962_bt) phases=1 windings=3 %loadloss=0.798816 %Noloadloss=0.472 normhkva=27.5 wdg=1 conn=wye bus=s_ncctt962.1 Kv=7.19956 kva=25.0 EmergHKVA=37.5 %r=0.266272 wdg=2 conn=wye bus=s_ncctt962_bt.1.0 Kv=0.120089 kva=25.0 EmergHKVA=37.5 %r=0.532544 wdg=3 conn=wye bus=s_ncctt962_bt.0.2 Kv=0.120089 kva=25.0 EmergHKVA=37.5 %r=0.532544 XHL=2.4 XLT=2.4 XHT=1.6

New Transformer.ctrafo(cramaee():s_ncctt99->s_ncctt99_bt) phases=1 windings=3 %loadloss=0.798816 %Noloadloss=0.472 normhkva=27.5 wdg=1 conn=wye bus=s_ncctt99.1 Kv=7.19956 kva=25.0 EmergHKVA=37.5 %r=0.266272 wdg=2 conn=wye bus=s_ncctt99_bt.1.0 Kv=0.120089 kva=25.0 EmergHKVA=37.5 %r=0.532544 wdg=3 conn=wye bus=s_ncctt99_bt.0.2 Kv=0.120089 kva=25.0 EmergHKVA=37.5 %r=0.532544 XHL=2.4 XLT=2.4 XHT=1.6

New Transformer.ctrafo(cramaee():s_ncctt1183->s_ncctt1183_bt) phases=1 windings=3 %loadloss=0.798816 %Noloadloss=0.37 normhkva=55.0 wdg=1 conn=wye bus=s_ncctt1183.3 Kv=7.19956 kva=50.0 EmergHKVA=75.0 %r=0.266272 wdg=2 conn=wye bus=s_ncctt1183_bt.1.0 Kv=0.120089 kva=50.0 EmergHKVA=75.0 %r=0.532544 wdg=3 conn=wye bus=s_ncctt1183_bt.0.2 Kv=0.120089 kva=50.0 EmergHKVA=75.0 %r=0.532544 XHL=2.4 XLT=2.4 XHT=1.6

New Transformer.ctrafo(cramaee():s_ncctt2277->s_ncctt2277_bt) phases=1 windings=3 %loadloss=1.248151 %Noloadloss=0.68 normhkva=11.0 wdg=1 conn=wye bus=s_ncctt2277.1 Kv=7.19956 kva=10.0 EmergHKVA=15.0 %r=0.41605 wdg=2 conn=wye bus=s_ncctt2277_bt.1.0 Kv=0.120089 kva=10.0 EmergHKVA=15.0 %r=0.832101 wdg=3 conn=wye bus=s_ncctt2277_bt.0.2 Kv=0.120089 kva=10.0 EmergHKVA=15.0 %r=0.832101 XHL=1.08 XLT=1.08 XHT=0.72

New Transformer.ctrafo(cramaee():s_ncctt484->s_ncctt484_bt) phases=1 windings=3 %loadloss=1.248151 %Noloadloss=0.68 normhkva=11.0 wdg=1 conn=wye bus=s_ncctt484.1 Kv=7.19956 kva=10.0 EmergHKVA=15.0 %r=0.41605 wdg=2 conn=wye bus=s_ncctt484_bt.1.0 Kv=0.120089 kva=10.0 EmergHKVA=15.0 %r=0.832101 wdg=3 conn=wye bus=s_ncctt484_bt.0.2 Kv=0.120089 kva=10.0 EmergHKVA=15.0 %r=0.832101 XHL=1.08 XLT=1.08 XHT=0.72

New Transformer.ctrafo(cramaee():s_ncctt513->s_ncctt513_bt) phases=1 windings=3 %loadloss=1.248151 %Noloadloss=0.68 normhkva=11.0 wdg=1 conn=wye bus=s_ncctt513.3 Kv=7.19956 kva=10.0 EmergHKVA=15.0 %r=0.41605 wdg=2 conn=wye bus=s_ncctt513_bt.1.0 Kv=0.120089 kva=10.0 EmergHKVA=15.0 %r=0.832101 wdg=3 conn=wye bus=s_ncctt513_bt.0.2 Kv=0.120089 kva=10.0 EmergHKVA=15.0 %r=0.832101 XHL=1.08 XLT=1.08 XHT=0.72

New Transformer.ctrafo(cramaee():s_ncctt2511->s_ncctt2511_bt) phases=1 windings=3 %loadloss=1.248151 %Noloadloss=0.68 normhkva=11.0 wdg=1 conn=wye bus=s_ncctt2511.3 Kv=7.19956 kva=10.0 EmergHKVA=15.0 %r=0.41605 wdg=2 conn=wye bus=s_ncctt2511_bt.1.0 Kv=0.120089 kva=10.0 EmergHKVA=15.0 %r=0.832101 wdg=3 conn=wye bus=s_ncctt2511_bt.0.2 Kv=0.120089 kva=10.0 EmergHKVA=15.0 %r=0.832101 XHL=1.08 XLT=1.08 XHT=0.72

New Transformer.ctrafo(cramaee():s_ncctt670->s_ncctt670_bt) phases=1 windings=3 %loadloss=1.248151 %Noloadloss=0.68 normhkva=11.0 wdg=1 conn=wye bus=s_ncctt670.1 Kv=7.19956 kva=10.0 EmergHKVA=15.0 %r=0.41605 wdg=2 conn=wye bus=s_ncctt670_bt.1.0 Kv=0.120089 kva=10.0 EmergHKVA=15.0 %r=0.832101 wdg=3 conn=wye bus=s_ncctt670_bt.0.2 Kv=0.120089 kva=10.0 EmergHKVA=15.0 %r=0.832101 XHL=1.08 XLT=1.08 XHT=0.72

New Transformer.ctrafo(cramaee():s_ncctt1958->s_ncctt1958_bt) phases=1 windings=3 %loadloss=1.248151 %Noloadloss=0.68 normhkva=11.0 wdg=1 conn=wye bus=s_ncctt1958.1 Kv=7.19956 kva=10.0 EmergHKVA=15.0 %r=0.41605 wdg=2 conn=wye bus=s_ncctt1958_bt.1.0 Kv=0.120089 kva=10.0 EmergHKVA=15.0 %r=0.832101 wdg=3 conn=wye bus=s_ncctt1958_bt.0.2 Kv=0.120089 kva=10.0 EmergHKVA=15.0 %r=0.832101 XHL=1.08 XLT=1.08 XHT=0.72

New Transformer.ctrafo(cramaee():s_ncctt1861->s_ncctt1861_bt) phases=1 windings=3 %loadloss=0.798816 %Noloadloss=0.472 normhkva=27.5 wdg=1 conn=wye bus=s_ncctt1861.2 Kv=7.19956 kva=25.0 EmergHKVA=37.5 %r=0.266272 wdg=2 conn=wye bus=s_ncctt1861_bt.1.0 Kv=0.120089 kva=25.0 EmergHKVA=37.5 %r=0.532544 wdg=3 conn=wye bus=s_ncctt1861_bt.0.2 Kv=0.120089 kva=25.0 EmergHKVA=37.5 %r=0.532544 XHL=2.4 XLT=2.4 XHT=1.6

New Transformer.ctrafo(cramaee():s_ncctt98->s_ncctt98_bt) phases=1 windings=3 %loadloss=0.798816 %Noloadloss=0.472 normhkva=27.5 wdg=1 conn=wye bus=s_ncctt98.3 Kv=7.19956 kva=25.0 EmergHKVA=37.5 %r=0.266272 wdg=2 conn=wye bus=s_ncctt98_bt.1.0 Kv=0.120089 kva=25.0 EmergHKVA=37.5 %r=0.532544 wdg=3 conn=wye bus=s_ncctt98_bt.0.2 Kv=0.120089 kva=25.0 EmergHKVA=37.5 %r=0.532544 XHL=2.4 XLT=2.4 XHT=1.6

New Transformer.ctrafo(cramaee():s_ncctt1416->s_ncctt1416_bt) phases=1 windings=3 %loadloss=1.248151 %Noloadloss=0.68 normhkva=11.0 wdg=1 conn=wye bus=s_ncctt1416.3 Kv=7.19956 kva=10.0 EmergHKVA=15.0 %r=0.41605 wdg=2 conn=wye bus=s_ncctt1416_bt.1.0 Kv=0.120089 kva=10.0 EmergHKVA=15.0 %r=0.832101 wdg=3 conn=wye bus=s_ncctt1416_bt.0.2 Kv=0.120089 kva=10.0 EmergHKVA=15.0 %r=0.832101 XHL=1.08 XLT=1.08 XHT=0.72

New Transformer.ctrafo(cramaee():s_ncctt1770->s_ncctt1770_bt) phases=1 windings=3 %loadloss=1.248151 %Noloadloss=0.68 normhkva=11.0 wdg=1 conn=wye bus=s_ncctt1770.3 Kv=7.19956 kva=10.0 EmergHKVA=15.0 %r=0.41605 wdg=2 conn=wye bus=s_ncctt1770_bt.1.0 Kv=0.120089 kva=10.0 EmergHKVA=15.0 %r=0.832101 wdg=3 conn=wye bus=s_ncctt1770_bt.0.2 Kv=0.120089 kva=10.0 EmergHKVA=15.0 %r=0.832101 XHL=1.08 XLT=1.08 XHT=0.72

New Transformer.ctrafo(cramaee():s_ncctt1406->s_ncctt1406_bt) phases=1 windings=3 %loadloss=1.248151 %Noloadloss=0.68 normhkva=11.0 wdg=1 conn=wye bus=s_ncctt1406.2 Kv=7.19956 kva=10.0 EmergHKVA=15.0 %r=0.41605 wdg=2 conn=wye bus=s_ncctt1406_bt.1.0 Kv=0.120089 kva=10.0 EmergHKVA=15.0 %r=0.832101 wdg=3 conn=wye bus=s_ncctt1406_bt.0.2 Kv=0.120089 kva=10.0 EmergHKVA=15.0 %r=0.832101 XHL=1.08 XLT=1.08 XHT=0.72

New Transformer.ctrafo(cramaee():s_ncctt1280->s_ncctt1280_bt) phases=1 windings=3 %loadloss=1.248151 %Noloadloss=0.68 normhkva=11.0 wdg=1 conn=wye bus=s_ncctt1280.2 Kv=7.19956 kva=10.0 EmergHKVA=15.0 %r=0.41605 wdg=2 conn=wye bus=s_ncctt1280_bt.1.0 Kv=0.120089 kva=10.0 EmergHKVA=15.0 %r=0.832101 wdg=3 conn=wye bus=s_ncctt1280_bt.0.2 Kv=0.120089 kva=10.0 EmergHKVA=15.0 %r=0.832101 XHL=1.08 XLT=1.08 XHT=0.72

New Transformer.ctrafo(cramaee():s_ncctt1140->s_ncctt1140_bt) phases=1 windings=3 %loadloss=1.248151 %Noloadloss=0.68 normhkva=11.0 wdg=1 conn=wye bus=s_ncctt1140.2 Kv=7.19956 kva=10.0 EmergHKVA=15.0 %r=0.41605 wdg=2 conn=wye bus=s_ncctt1140_bt.1.0 Kv=0.120089 kva=10.0 EmergHKVA=15.0 %r=0.832101 wdg=3 conn=wye bus=s_ncctt1140_bt.0.2 Kv=0.120089 kva=10.0 EmergHKVA=15.0 %r=0.832101 XHL=1.08 XLT=1.08 XHT=0.72

New Transformer.ctrafo(cramaee():s_ncctt137->s_ncctt137_bt) phases=1 windings=3 %loadloss=1.248151 %Noloadloss=0.68 normhkva=11.0 wdg=1 conn=wye bus=s_ncctt137.1 Kv=7.19956 kva=10.0 EmergHKVA=15.0 %r=0.41605 wdg=2 conn=wye bus=s_ncctt137_bt.1.0 Kv=0.120089 kva=10.0 EmergHKVA=15.0 %r=0.832101 wdg=3 conn=wye bus=s_ncctt137_bt.0.2 Kv=0.120089 kva=10.0 EmergHKVA=15.0 %r=0.832101 XHL=1.08 XLT=1.08 XHT=0.72

New Transformer.ctrafo(cramaee():s_ncctt1428->s_ncctt1428_bt) phases=1 windings=3 %loadloss=1.248151 %Noloadloss=0.68 normhkva=11.0 wdg=1 conn=wye bus=s_ncctt1428.1 Kv=7.19956 kva=10.0 EmergHKVA=15.0 %r=0.41605 wdg=2 conn=wye bus=s_ncctt1428_bt.1.0 Kv=0.120089 kva=10.0 EmergHKVA=15.0 %r=0.832101 wdg=3 conn=wye bus=s_ncctt1428_bt.0.2 Kv=0.120089 kva=10.0 EmergHKVA=15.0 %r=0.832101 XHL=1.08 XLT=1.08 XHT=0.72

New Transformer.ctrafo(cramaee():s_ncctt1909->s_ncctt1909_bt) phases=1 windings=3 %loadloss=1.248151 %Noloadloss=0.68 normhkva=11.0 wdg=1 conn=wye bus=s_ncctt1909.3 Kv=7.19956 kva=10.0 EmergHKVA=15.0 %r=0.41605 wdg=2 conn=wye bus=s_ncctt1909_bt.1.0 Kv=0.120089 kva=10.0 EmergHKVA=15.0 %r=0.832101 wdg=3 conn=wye bus=s_ncctt1909_bt.0.2 Kv=0.120089 kva=10.0 EmergHKVA=15.0 %r=0.832101 XHL=1.08 XLT=1.08 XHT=0.72

New Transformer.ctrafo(cramaee():s_ncctt1624->s_ncctt1624_bt) phases=1 windings=3 %loadloss=1.248151 %Noloadloss=0.68 normhkva=11.0 wdg=1 conn=wye bus=s_ncctt1624.2 Kv=7.19956 kva=10.0 EmergHKVA=15.0 %r=0.41605 wdg=2 conn=wye bus=s_ncctt1624_bt.1.0 Kv=0.120089 kva=10.0 EmergHKVA=15.0 %r=0.832101 wdg=3 conn=wye bus=s_ncctt1624_bt.0.2 Kv=0.120089 kva=10.0 EmergHKVA=15.0 %r=0.832101 XHL=1.08 XLT=1.08 XHT=0.72

New Transformer.ctrafo(cramaee():s_ncctt150->s_ncctt150_bt) phases=1 windings=3 %loadloss=0.798816 %Noloadloss=0.472 normhkva=27.5 wdg=1 conn=wye bus=s_ncctt150.1 Kv=7.19956 kva=25.0 EmergHKVA=37.5 %r=0.266272 wdg=2 conn=wye bus=s_ncctt150_bt.1.0 Kv=0.120089 kva=25.0 EmergHKVA=37.5 %r=0.532544 wdg=3 conn=wye bus=s_ncctt150_bt.0.2 Kv=0.120089 kva=25.0 EmergHKVA=37.5 %r=0.532544 XHL=2.4 XLT=2.4 XHT=1.6

New Transformer.ctrafo(cramaee():s_ncctt2006->s_ncctt2006_bt) phases=1 windings=3 %loadloss=1.248151 %Noloadloss=0.68 normhkva=11.0 wdg=1 conn=wye bus=s_ncctt2006.3 Kv=7.19956 kva=10.0 EmergHKVA=15.0 %r=0.41605 wdg=2 conn=wye bus=s_ncctt2006_bt.1.0 Kv=0.120089 kva=10.0 EmergHKVA=15.0 %r=0.832101 wdg=3 conn=wye bus=s_ncctt2006_bt.0.2 Kv=0.120089 kva=10.0 EmergHKVA=15.0 %r=0.832101 XHL=1.08 XLT=1.08 XHT=0.72

New Transformer.ctrafo(cramaee():s_ncctt1981->s_ncctt1981_bt) phases=1 windings=3 %loadloss=1.248151 %Noloadloss=0.68 normhkva=11.0 wdg=1 conn=wye bus=s_ncctt1981.1 Kv=7.19956 kva=10.0 EmergHKVA=15.0 %r=0.41605 wdg=2 conn=wye bus=s_ncctt1981_bt.1.0 Kv=0.120089 kva=10.0 EmergHKVA=15.0 %r=0.832101 wdg=3 conn=wye bus=s_ncctt1981_bt.0.2 Kv=0.120089 kva=10.0 EmergHKVA=15.0 %r=0.832101 XHL=1.08 XLT=1.08 XHT=0.72

New Transformer.ctrafo(cramaee():s_ncctt1749->s_ncctt1749_bt) phases=1 windings=3 %loadloss=0.49926 %Noloadloss=0.38 normhkva=82.5 wdg=1 conn=wye bus=s_ncctt1749.2 Kv=7.19956 kva=75.0 EmergHKVA=112.5 %r=0.16642 wdg=2 conn=wye bus=s_ncctt1749_bt.1.0 Kv=0.120089 kva=75.0 EmergHKVA=112.5 %r=0.33284 wdg=3 conn=wye bus=s_ncctt1749_bt.0.2 Kv=0.120089 kva=75.0 EmergHKVA=112.5 %r=0.33284 XHL=2.4 XLT=2.4 XHT=1.6

New Transformer.ctrafo(cramaee():s_ncctt2500->s_ncctt2500_bt) phases=1 windings=3 %loadloss=1.248151 %Noloadloss=0.68 normhkva=11.0 wdg=1 conn=wye bus=s_ncctt2500.2 Kv=7.19956 kva=10.0 EmergHKVA=15.0 %r=0.41605 wdg=2 conn=wye bus=s_ncctt2500_bt.1.0 Kv=0.120089 kva=10.0 EmergHKVA=15.0 %r=0.832101 wdg=3 conn=wye bus=s_ncctt2500_bt.0.2 Kv=0.120089 kva=10.0 EmergHKVA=15.0 %r=0.832101 XHL=1.08 XLT=1.08 XHT=0.72

New Transformer.ctrafo(cramaee():s_ncctt452->s_ncctt452_bt) phases=1 windings=3 %loadloss=1.248151 %Noloadloss=0.68 normhkva=11.0 wdg=1 conn=wye bus=s_ncctt452.3 Kv=7.19956 kva=10.0 EmergHKVA=15.0 %r=0.41605 wdg=2 conn=wye bus=s_ncctt452_bt.1.0 Kv=0.120089 kva=10.0 EmergHKVA=15.0 %r=0.832101 wdg=3 conn=wye bus=s_ncctt452_bt.0.2 Kv=0.120089 kva=10.0 EmergHKVA=15.0 %r=0.832101 XHL=1.08 XLT=1.08 XHT=0.72

New Transformer.ctrafo(cramaee():s_ncctt2421->s_ncctt2421_bt) phases=1 windings=3 %loadloss=0.49926 %Noloadloss=0.38 normhkva=82.5 wdg=1 conn=wye bus=s_ncctt2421.1 Kv=7.19956 kva=75.0 EmergHKVA=112.5 %r=0.16642 wdg=2 conn=wye bus=s_ncctt2421_bt.1.0 Kv=0.120089 kva=75.0 EmergHKVA=112.5 %r=0.33284 wdg=3 conn=wye bus=s_ncctt2421_bt.0.2 Kv=0.120089 kva=75.0 EmergHKVA=112.5 %r=0.33284 XHL=2.4 XLT=2.4 XHT=1.6

New Transformer.ctrafo(cramaee():s_ncctt1833->s_ncctt1833_bt) phases=1 windings=3 %loadloss=1.248151 %Noloadloss=0.68 normhkva=11.0 wdg=1 conn=wye bus=s_ncctt1833.2 Kv=7.19956 kva=10.0 EmergHKVA=15.0 %r=0.41605 wdg=2 conn=wye bus=s_ncctt1833_bt.1.0 Kv=0.120089 kva=10.0 EmergHKVA=15.0 %r=0.832101 wdg=3 conn=wye bus=s_ncctt1833_bt.0.2 Kv=0.120089 kva=10.0 EmergHKVA=15.0 %r=0.832101 XHL=1.08 XLT=1.08 XHT=0.72

New Transformer.ctrafo(cramaee():s_ncctt1903->s_ncctt1903_bt) phases=1 windings=3 %loadloss=1.248151 %Noloadloss=0.68 normhkva=11.0 wdg=1 conn=wye bus=s_ncctt1903.3 Kv=7.19956 kva=10.0 EmergHKVA=15.0 %r=0.41605 wdg=2 conn=wye bus=s_ncctt1903_bt.1.0 Kv=0.120089 kva=10.0 EmergHKVA=15.0 %r=0.832101 wdg=3 conn=wye bus=s_ncctt1903_bt.0.2 Kv=0.120089 kva=10.0 EmergHKVA=15.0 %r=0.832101 XHL=1.08 XLT=1.08 XHT=0.72

New Transformer.ctrafo(cramaee():s_ncctt1108->s_ncctt1108_bt) phases=1 windings=3 %loadloss=0.49926 %Noloadloss=0.38 normhkva=82.5 wdg=1 conn=wye bus=s_ncctt1108.3 Kv=7.19956 kva=75.0 EmergHKVA=112.5 %r=0.16642 wdg=2 conn=wye bus=s_ncctt1108_bt.1.0 Kv=0.120089 kva=75.0 EmergHKVA=112.5 %r=0.33284 wdg=3 conn=wye bus=s_ncctt1108_bt.0.2 Kv=0.120089 kva=75.0 EmergHKVA=112.5 %r=0.33284 XHL=2.4 XLT=2.4 XHT=1.6

New Transformer.ctrafo(cramaee():s_ncctt1419->s_ncctt1419_bt) phases=1 windings=3 %loadloss=1.248151 %Noloadloss=0.68 normhkva=11.0 wdg=1 conn=wye bus=s_ncctt1419.1 Kv=7.19956 kva=10.0 EmergHKVA=15.0 %r=0.41605 wdg=2 conn=wye bus=s_ncctt1419_bt.1.0 Kv=0.120089 kva=10.0 EmergHKVA=15.0 %r=0.832101 wdg=3 conn=wye bus=s_ncctt1419_bt.0.2 Kv=0.120089 kva=10.0 EmergHKVA=15.0 %r=0.832101 XHL=1.08 XLT=1.08 XHT=0.72

New Transformer.ctrafo(cramaee():s_ncctt360->s_ncctt360_bt) phases=1 windings=3 %loadloss=1.248151 %Noloadloss=0.68 normhkva=11.0 wdg=1 conn=wye bus=s_ncctt360.3 Kv=7.19956 kva=10.0 EmergHKVA=15.0 %r=0.41605 wdg=2 conn=wye bus=s_ncctt360_bt.1.0 Kv=0.120089 kva=10.0 EmergHKVA=15.0 %r=0.832101 wdg=3 conn=wye bus=s_ncctt360_bt.0.2 Kv=0.120089 kva=10.0 EmergHKVA=15.0 %r=0.832101 XHL=1.08 XLT=1.08 XHT=0.72

New Transformer.ctrafo(cramaee():s_ncctt1867->s_ncctt1867_bt) phases=1 windings=3 %loadloss=1.248151 %Noloadloss=0.68 normhkva=11.0 wdg=1 conn=wye bus=s_ncctt1867.2 Kv=7.19956 kva=10.0 EmergHKVA=15.0 %r=0.41605 wdg=2 conn=wye bus=s_ncctt1867_bt.1.0 Kv=0.120089 kva=10.0 EmergHKVA=15.0 %r=0.832101 wdg=3 conn=wye bus=s_ncctt1867_bt.0.2 Kv=0.120089 kva=10.0 EmergHKVA=15.0 %r=0.832101 XHL=1.08 XLT=1.08 XHT=0.72

New Transformer.ctrafo(cramaee():s_ncctt591->s_ncctt591_bt) phases=1 windings=3 %loadloss=1.248151 %Noloadloss=0.68 normhkva=11.0 wdg=1 conn=wye bus=s_ncctt591.1 Kv=7.19956 kva=10.0 EmergHKVA=15.0 %r=0.41605 wdg=2 conn=wye bus=s_ncctt591_bt.1.0 Kv=0.120089 kva=10.0 EmergHKVA=15.0 %r=0.832101 wdg=3 conn=wye bus=s_ncctt591_bt.0.2 Kv=0.120089 kva=10.0 EmergHKVA=15.0 %r=0.832101 XHL=1.08 XLT=1.08 XHT=0.72

New Transformer.ctrafo(cramaee():s_ncctt697->s_ncctt697_bt) phases=1 windings=3 %loadloss=0.49926 %Noloadloss=0.38 normhkva=82.5 wdg=1 conn=wye bus=s_ncctt697.2 Kv=7.19956 kva=75.0 EmergHKVA=112.5 %r=0.16642 wdg=2 conn=wye bus=s_ncctt697_bt.1.0 Kv=0.120089 kva=75.0 EmergHKVA=112.5 %r=0.33284 wdg=3 conn=wye bus=s_ncctt697_bt.0.2 Kv=0.120089 kva=75.0 EmergHKVA=112.5 %r=0.33284 XHL=2.4 XLT=2.4 XHT=1.6

New Transformer.ctrafo(cramaee():s_ncctt1736->s_ncctt1736_bt) phases=1 windings=3 %loadloss=1.248151 %Noloadloss=0.68 normhkva=11.0 wdg=1 conn=wye bus=s_ncctt1736.3 Kv=7.19956 kva=10.0 EmergHKVA=15.0 %r=0.41605 wdg=2 conn=wye bus=s_ncctt1736_bt.1.0 Kv=0.120089 kva=10.0 EmergHKVA=15.0 %r=0.832101 wdg=3 conn=wye bus=s_ncctt1736_bt.0.2 Kv=0.120089 kva=10.0 EmergHKVA=15.0 %r=0.832101 XHL=1.08 XLT=1.08 XHT=0.72

New Transformer.ctrafo(cramaee():s_ncctt1711->s_ncctt1711_bt) phases=1 windings=3 %loadloss=1.248151 %Noloadloss=0.68 normhkva=11.0 wdg=1 conn=wye bus=s_ncctt1711.1 Kv=7.19956 kva=10.0 EmergHKVA=15.0 %r=0.41605 wdg=2 conn=wye bus=s_ncctt1711_bt.1.0 Kv=0.120089 kva=10.0 EmergHKVA=15.0 %r=0.832101 wdg=3 conn=wye bus=s_ncctt1711_bt.0.2 Kv=0.120089 kva=10.0 EmergHKVA=15.0 %r=0.832101 XHL=1.08 XLT=1.08 XHT=0.72

New Transformer.ctrafo(cramaee():s_ncctt25->s_ncctt25_bt) phases=1 windings=3 %loadloss=1.248151 %Noloadloss=0.68 normhkva=11.0 wdg=1 conn=wye bus=s_ncctt25.1 Kv=7.19956 kva=10.0 EmergHKVA=15.0 %r=0.41605 wdg=2 conn=wye bus=s_ncctt25_bt.1.0 Kv=0.120089 kva=10.0 EmergHKVA=15.0 %r=0.832101 wdg=3 conn=wye bus=s_ncctt25_bt.0.2 Kv=0.120089 kva=10.0 EmergHKVA=15.0 %r=0.832101 XHL=1.08 XLT=1.08 XHT=0.72

New Transformer.ctrafo(cramaee():s_ncctt1714->s_ncctt1714_bt) phases=1 windings=3 %loadloss=0.798816 %Noloadloss=0.472 normhkva=27.5 wdg=1 conn=wye bus=s_ncctt1714.3 Kv=7.19956 kva=25.0 EmergHKVA=37.5 %r=0.266272 wdg=2 conn=wye bus=s_ncctt1714_bt.1.0 Kv=0.120089 kva=25.0 EmergHKVA=37.5 %r=0.532544 wdg=3 conn=wye bus=s_ncctt1714_bt.0.2 Kv=0.120089 kva=25.0 EmergHKVA=37.5 %r=0.532544 XHL=2.4 XLT=2.4 XHT=1.6

New Transformer.ctrafo(cramaee():s_ncctt2150->s_ncctt2150_bt) phases=1 windings=3 %loadloss=1.248151 %Noloadloss=0.68 normhkva=11.0 wdg=1 conn=wye bus=s_ncctt2150.1 Kv=7.19956 kva=10.0 EmergHKVA=15.0 %r=0.41605 wdg=2 conn=wye bus=s_ncctt2150_bt.1.0 Kv=0.120089 kva=10.0 EmergHKVA=15.0 %r=0.832101 wdg=3 conn=wye bus=s_ncctt2150_bt.0.2 Kv=0.120089 kva=10.0 EmergHKVA=15.0 %r=0.832101 XHL=1.08 XLT=1.08 XHT=0.72

New Transformer.ctrafo(cramaee():s_ncctt1681->s_ncctt1681_bt) phases=1 windings=3 %loadloss=1.248151 %Noloadloss=0.68 normhkva=11.0 wdg=1 conn=wye bus=s_ncctt1681.1 Kv=7.19956 kva=10.0 EmergHKVA=15.0 %r=0.41605 wdg=2 conn=wye bus=s_ncctt1681_bt.1.0 Kv=0.120089 kva=10.0 EmergHKVA=15.0 %r=0.832101 wdg=3 conn=wye bus=s_ncctt1681_bt.0.2 Kv=0.120089 kva=10.0 EmergHKVA=15.0 %r=0.832101 XHL=1.08 XLT=1.08 XHT=0.72

New Transformer.ctrafo(cramaee():s_ncctt2145->s_ncctt2145_bt) phases=1 windings=3 %loadloss=1.248151 %Noloadloss=0.68 normhkva=11.0 wdg=1 conn=wye bus=s_ncctt2145.1 Kv=7.19956 kva=10.0 EmergHKVA=15.0 %r=0.41605 wdg=2 conn=wye bus=s_ncctt2145_bt.1.0 Kv=0.120089 kva=10.0 EmergHKVA=15.0 %r=0.832101 wdg=3 conn=wye bus=s_ncctt2145_bt.0.2 Kv=0.120089 kva=10.0 EmergHKVA=15.0 %r=0.832101 XHL=1.08 XLT=1.08 XHT=0.72

New Transformer.ctrafo(cramaee():s_ncctt2555->s_ncctt2555_bt) phases=1 windings=3 %loadloss=1.248151 %Noloadloss=0.68 normhkva=11.0 wdg=1 conn=wye bus=s_ncctt2555.1 Kv=7.19956 kva=10.0 EmergHKVA=15.0 %r=0.41605 wdg=2 conn=wye bus=s_ncctt2555_bt.1.0 Kv=0.120089 kva=10.0 EmergHKVA=15.0 %r=0.832101 wdg=3 conn=wye bus=s_ncctt2555_bt.0.2 Kv=0.120089 kva=10.0 EmergHKVA=15.0 %r=0.832101 XHL=1.08 XLT=1.08 XHT=0.72

New Transformer.ctrafo(cramaee():s_ncctt540->s_ncctt540_bt) phases=1 windings=3 %loadloss=0.798816 %Noloadloss=0.472 normhkva=27.5 wdg=1 conn=wye bus=s_ncctt540.1 Kv=7.19956 kva=25.0 EmergHKVA=37.5 %r=0.266272 wdg=2 conn=wye bus=s_ncctt540_bt.1.0 Kv=0.120089 kva=25.0 EmergHKVA=37.5 %r=0.532544 wdg=3 conn=wye bus=s_ncctt540_bt.0.2 Kv=0.120089 kva=25.0 EmergHKVA=37.5 %r=0.532544 XHL=2.4 XLT=2.4 XHT=1.6

New Transformer.ctrafo(cramaee():s_ncctt51->s_ncctt51_bt) phases=1 windings=3 %loadloss=0.798816 %Noloadloss=0.472 normhkva=27.5 wdg=1 conn=wye bus=s_ncctt51.1 Kv=7.19956 kva=25.0 EmergHKVA=37.5 %r=0.266272 wdg=2 conn=wye bus=s_ncctt51_bt.1.0 Kv=0.120089 kva=25.0 EmergHKVA=37.5 %r=0.532544 wdg=3 conn=wye bus=s_ncctt51_bt.0.2 Kv=0.120089 kva=25.0 EmergHKVA=37.5 %r=0.532544 XHL=2.4 XLT=2.4 XHT=1.6

New Transformer.ctrafo(cramaee():s_ncctt73->s_ncctt73_bt) phases=1 windings=3 %loadloss=0.798816 %Noloadloss=0.472 normhkva=27.5 wdg=1 conn=wye bus=s_ncctt73.3 Kv=7.19956 kva=25.0 EmergHKVA=37.5 %r=0.266272 wdg=2 conn=wye bus=s_ncctt73_bt.1.0 Kv=0.120089 kva=25.0 EmergHKVA=37.5 %r=0.532544 wdg=3 conn=wye bus=s_ncctt73_bt.0.2 Kv=0.120089 kva=25.0 EmergHKVA=37.5 %r=0.532544 XHL=2.4 XLT=2.4 XHT=1.6

New Transformer.ctrafo(cramaee():s_ncctt802->s_ncctt802_bt) phases=1 windings=3 %loadloss=0.798816 %Noloadloss=0.472 normhkva=27.5 wdg=1 conn=wye bus=s_ncctt802.3 Kv=7.19956 kva=25.0 EmergHKVA=37.5 %r=0.266272 wdg=2 conn=wye bus=s_ncctt802_bt.1.0 Kv=0.120089 kva=25.0 EmergHKVA=37.5 %r=0.532544 wdg=3 conn=wye bus=s_ncctt802_bt.0.2 Kv=0.120089 kva=25.0 EmergHKVA=37.5 %r=0.532544 XHL=2.4 XLT=2.4 XHT=1.6

New Transformer.ctrafo(cramaee():s_ncctt1228->s_ncctt1228_bt) phases=1 windings=3 %loadloss=0.798816 %Noloadloss=0.472 normhkva=27.5 wdg=1 conn=wye bus=s_ncctt1228.1 Kv=7.19956 kva=25.0 EmergHKVA=37.5 %r=0.266272 wdg=2 conn=wye bus=s_ncctt1228_bt.1.0 Kv=0.120089 kva=25.0 EmergHKVA=37.5 %r=0.532544 wdg=3 conn=wye bus=s_ncctt1228_bt.0.2 Kv=0.120089 kva=25.0 EmergHKVA=37.5 %r=0.532544 XHL=2.4 XLT=2.4 XHT=1.6

New Transformer.ctrafo(cramaee():s_ncctt386->s_ncctt386_bt) phases=1 windings=3 %loadloss=1.248151 %Noloadloss=0.68 normhkva=11.0 wdg=1 conn=wye bus=s_ncctt386.3 Kv=7.19956 kva=10.0 EmergHKVA=15.0 %r=0.41605 wdg=2 conn=wye bus=s_ncctt386_bt.1.0 Kv=0.120089 kva=10.0 EmergHKVA=15.0 %r=0.832101 wdg=3 conn=wye bus=s_ncctt386_bt.0.2 Kv=0.120089 kva=10.0 EmergHKVA=15.0 %r=0.832101 XHL=1.08 XLT=1.08 XHT=0.72

New Transformer.ctrafo(cramaee():s_ncctt41->s_ncctt41_bt) phases=1 windings=3 %loadloss=0.49926 %Noloadloss=0.38 normhkva=82.5 wdg=1 conn=wye bus=s_ncctt41.3 Kv=7.19956 kva=75.0 EmergHKVA=112.5 %r=0.16642 wdg=2 conn=wye bus=s_ncctt41_bt.1.0 Kv=0.120089 kva=75.0 EmergHKVA=112.5 %r=0.33284 wdg=3 conn=wye bus=s_ncctt41_bt.0.2 Kv=0.120089 kva=75.0 EmergHKVA=112.5 %r=0.33284 XHL=2.4 XLT=2.4 XHT=1.6

New Transformer.ctrafo(cramaee():s_ncctt1229->s_ncctt1229_bt) phases=1 windings=3 %loadloss=0.798816 %Noloadloss=0.472 normhkva=27.5 wdg=1 conn=wye bus=s_ncctt1229.1 Kv=7.19956 kva=25.0 EmergHKVA=37.5 %r=0.266272 wdg=2 conn=wye bus=s_ncctt1229_bt.1.0 Kv=0.120089 kva=25.0 EmergHKVA=37.5 %r=0.532544 wdg=3 conn=wye bus=s_ncctt1229_bt.0.2 Kv=0.120089 kva=25.0 EmergHKVA=37.5 %r=0.532544 XHL=2.4 XLT=2.4 XHT=1.6

New Transformer.ctrafo(cramaee():s_ncctt219->s_ncctt219_bt) phases=1 windings=3 %loadloss=0.798816 %Noloadloss=0.472 normhkva=27.5 wdg=1 conn=wye bus=s_ncctt219.3 Kv=7.19956 kva=25.0 EmergHKVA=37.5 %r=0.266272 wdg=2 conn=wye bus=s_ncctt219_bt.1.0 Kv=0.120089 kva=25.0 EmergHKVA=37.5 %r=0.532544 wdg=3 conn=wye bus=s_ncctt219_bt.0.2 Kv=0.120089 kva=25.0 EmergHKVA=37.5 %r=0.532544 XHL=2.4 XLT=2.4 XHT=1.6

New Transformer.ctrafo(cramaee():s_ncctt1663->s_ncctt1663_bt) phases=1 windings=3 %loadloss=1.248151 %Noloadloss=0.68 normhkva=11.0 wdg=1 conn=wye bus=s_ncctt1663.3 Kv=7.19956 kva=10.0 EmergHKVA=15.0 %r=0.41605 wdg=2 conn=wye bus=s_ncctt1663_bt.1.0 Kv=0.120089 kva=10.0 EmergHKVA=15.0 %r=0.832101 wdg=3 conn=wye bus=s_ncctt1663_bt.0.2 Kv=0.120089 kva=10.0 EmergHKVA=15.0 %r=0.832101 XHL=1.08 XLT=1.08 XHT=0.72

New Transformer.ctrafo(cramaee():s_ncctt1369->s_ncctt1369_bt) phases=1 windings=3 %loadloss=0.49926 %Noloadloss=0.38 normhkva=82.5 wdg=1 conn=wye bus=s_ncctt1369.3 Kv=7.19956 kva=75.0 EmergHKVA=112.5 %r=0.16642 wdg=2 conn=wye bus=s_ncctt1369_bt.1.0 Kv=0.120089 kva=75.0 EmergHKVA=112.5 %r=0.33284 wdg=3 conn=wye bus=s_ncctt1369_bt.0.2 Kv=0.120089 kva=75.0 EmergHKVA=112.5 %r=0.33284 XHL=2.4 XLT=2.4 XHT=1.6

New Transformer.ctrafo(cramaee():s_ncctt455->s_ncctt455_bt) phases=1 windings=3 %loadloss=1.248151 %Noloadloss=0.68 normhkva=11.0 wdg=1 conn=wye bus=s_ncctt455.3 Kv=7.19956 kva=10.0 EmergHKVA=15.0 %r=0.41605 wdg=2 conn=wye bus=s_ncctt455_bt.1.0 Kv=0.120089 kva=10.0 EmergHKVA=15.0 %r=0.832101 wdg=3 conn=wye bus=s_ncctt455_bt.0.2 Kv=0.120089 kva=10.0 EmergHKVA=15.0 %r=0.832101 XHL=1.08 XLT=1.08 XHT=0.72

...